file 1370465 1632404246                                         
version 2
run _3D_Turtle_Secure-0-20210917-12:05:07-6748
attr configname _3D_Turtle_Secure
attr datetime 20210917-12:05:07
attr experiment _3D_Turtle_Secure
attr inifile omnetpp.ini
attr iterationvars ""
attr iterationvarsf ""
attr measurement ""
attr network FanetGpsrSecure
attr processid 6748
attr repetition 0
attr replication #0
attr resultdir results
attr runnumber 0
attr seedset 0
param *.host[*].osgModel "\"3d/drone.ive.100.scale.0,0,90.rot\""
param *.sybil[*].osgModel "\"3d/glider.osgb.100.scale.0,0,90.rot\""
param *.host*.mobility.typename "\"TurtleMobility\""
param *.host*.mobility.turtleScript "xmldoc(\"config.xml\")"
param *.sybil*.mobility.typename "\"TurtleMobility\""
param *.sybil*.mobility.turtleScript "xmldoc(\"config.xml\")"
param *.host[0].numApps 1
param *.host[0].app[0].typename "\"PingApp\""
param *.host[0].app[0].destAddr "\"host[20]\""
param *.host[0].app[0].printPing true
param **.wlan[*].bitrate 24Mbps
param *.configurator.addStaticRoutes false
param **.netmaskRoutes "\"\""
param **.arp.typename "\"GlobalArp\""
param **.planarizationMode "\"RNG\""
param **.beaconInterval 1s
param *.host*.wlan[0].typename "\"AckingWirelessInterface\""
param *.host*.wlan[0].radio.transmitter.communicationRange 300m
param *.sybil*.wlan[0].typename "\"AckingWirelessInterface\""
param *.sybil*.wlan[0].radio.transmitter.communicationRange 300m
param *.visualizer.osgVisualizer.typename "\"IntegratedOsgVisualizer\""
param *.visualizer.osgVisualizer.sceneVisualizer.typename "\"SceneOsgEarthVisualizer\""
param *.visualizer.osgVisualizer.sceneVisualizer.mapFile "\"unical.earth\""
param *.coordinateSystem.sceneLongitude 16.2215deg
param *.coordinateSystem.sceneLatitude 39.3701deg
param *.visualizer.osgVisualizer.sceneVisualizer.clearColor "\"skyblue\""
param *.visualizer.osgVisualizer.sceneVisualizer.sceneShading false
param *.visualizer.osgVisualizer.sceneVisualizer.sceneColor "\"#000000\""
param *.visualizer.osgVisualizer.sceneVisualizer.sceneOpacity 0.0
param *.visualizer.osgVisualizer.sceneVisualizer.sceneImageSize 4000m
param *.visualizer.osgVisualizer.sceneVisualizer.axisLength 2000m
param *.visualizer.osgVisualizer.sceneVisualizer.sceneMinX 0m
param *.visualizer.osgVisualizer.sceneVisualizer.sceneMinY 0m
param *.visualizer.osgVisualizer.sceneVisualizer.sceneMinZ 0m
param *.visualizer.osgVisualizer.sceneVisualizer.sceneMaxX 1700m
param *.visualizer.osgVisualizer.sceneVisualizer.sceneMaxY 300m
param *.visualizer.osgVisualizer.sceneVisualizer.sceneMaxZ 20m
param *.coordinateSystem.sceneAltitude 20m
param *.coordinateSystem.sceneHeading 169deg
param *.visualizer.osgVisualizer.networkNodeVisualizer.displayModuleName false
param *.visualizer.*.mobilityVisualizer.displayMobility true
param *.visualizer.*.mobilityVisualizer.displayPositions true
param *.visualizer.*.mobilityVisualizer.displayOrientations true
param *.visualizer.*.mobilityVisualizer.displayVelocities true
param *.visualizer.*.mobilityVisualizer.displayMovementTrails true
param *.visualizer.*.mobilityVisualizer.animationSpeed 1
param **.constraintAreaMinX 0m
param **.constraintAreaMinY 0m
param **.constraintAreaMinZ 200m
param **.constraintAreaMaxX 1500m
param **.constraintAreaMaxY 800m
param **.constraintAreaMaxZ 400m

vector 0 FanetGpsrSecure.host[0].wlan[0].radio radioMode:vector ETV
attr interpolationmode sample-hold
attr source radioModeChanged
attr title "Radio mode, vector"
0	121077 27 0 0 0 0 3 0 4 4 16
vector 1 FanetGpsrSecure.host[1].wlan[0].radio radioMode:vector ETV
attr interpolationmode sample-hold
attr source radioModeChanged
attr title "Radio mode, vector"
1	121104 27 0 0 0 0 3 0 4 4 16
vector 2 FanetGpsrSecure.host[2].wlan[0].radio radioMode:vector ETV
attr interpolationmode sample-hold
attr source radioModeChanged
attr title "Radio mode, vector"
2	121131 27 0 0 0 0 3 0 4 4 16
vector 3 FanetGpsrSecure.host[3].wlan[0].radio radioMode:vector ETV
attr interpolationmode sample-hold
attr source radioModeChanged
attr title "Radio mode, vector"
3	121158 27 0 0 0 0 3 0 4 4 16
vector 4 FanetGpsrSecure.host[4].wlan[0].radio radioMode:vector ETV
attr interpolationmode sample-hold
attr source radioModeChanged
attr title "Radio mode, vector"
4	121185 27 0 0 0 0 3 0 4 4 16
vector 5 FanetGpsrSecure.host[5].wlan[0].radio radioMode:vector ETV
attr interpolationmode sample-hold
attr source radioModeChanged
attr title "Radio mode, vector"
5	121212 27 0 0 0 0 3 0 4 4 16
vector 6 FanetGpsrSecure.host[6].wlan[0].radio radioMode:vector ETV
attr interpolationmode sample-hold
attr source radioModeChanged
attr title "Radio mode, vector"
6	121239 27 0 0 0 0 3 0 4 4 16
vector 7 FanetGpsrSecure.host[7].wlan[0].radio radioMode:vector ETV
attr interpolationmode sample-hold
attr source radioModeChanged
attr title "Radio mode, vector"
7	121266 27 0 0 0 0 3 0 4 4 16
vector 8 FanetGpsrSecure.host[8].wlan[0].radio radioMode:vector ETV
attr interpolationmode sample-hold
attr source radioModeChanged
attr title "Radio mode, vector"
8	121293 27 0 0 0 0 3 0 4 4 16
vector 9 FanetGpsrSecure.host[9].wlan[0].radio radioMode:vector ETV
attr interpolationmode sample-hold
attr source radioModeChanged
attr title "Radio mode, vector"
9	121320 27 0 0 0 0 3 0 4 4 16
vector 10 FanetGpsrSecure.host[10].wlan[0].radio radioMode:vector ETV
attr interpolationmode sample-hold
attr source radioModeChanged
attr title "Radio mode, vector"
10	121347 30 0 0 0 0 3 0 4 4 16
vector 11 FanetGpsrSecure.host[11].wlan[0].radio radioMode:vector ETV
attr interpolationmode sample-hold
attr source radioModeChanged
attr title "Radio mode, vector"
11	121377 30 0 0 0 0 3 0 4 4 16
vector 12 FanetGpsrSecure.host[12].wlan[0].radio radioMode:vector ETV
attr interpolationmode sample-hold
attr source radioModeChanged
attr title "Radio mode, vector"
12	121407 30 0 0 0 0 3 0 4 4 16
vector 13 FanetGpsrSecure.host[13].wlan[0].radio radioMode:vector ETV
attr interpolationmode sample-hold
attr source radioModeChanged
attr title "Radio mode, vector"
13	121437 30 0 0 0 0 3 0 4 4 16
vector 14 FanetGpsrSecure.host[14].wlan[0].radio radioMode:vector ETV
attr interpolationmode sample-hold
attr source radioModeChanged
attr title "Radio mode, vector"
14	121467 30 0 0 0 0 3 0 4 4 16
vector 15 FanetGpsrSecure.host[15].wlan[0].radio radioMode:vector ETV
attr interpolationmode sample-hold
attr source radioModeChanged
attr title "Radio mode, vector"
15	121497 30 0 0 0 0 3 0 4 4 16
vector 16 FanetGpsrSecure.host[16].wlan[0].radio radioMode:vector ETV
attr interpolationmode sample-hold
attr source radioModeChanged
attr title "Radio mode, vector"
16	121527 30 0 0 0 0 3 0 4 4 16
vector 17 FanetGpsrSecure.host[17].wlan[0].radio radioMode:vector ETV
attr interpolationmode sample-hold
attr source radioModeChanged
attr title "Radio mode, vector"
17	121557 30 0 0 0 0 3 0 4 4 16
vector 18 FanetGpsrSecure.host[18].wlan[0].radio radioMode:vector ETV
attr interpolationmode sample-hold
attr source radioModeChanged
attr title "Radio mode, vector"
18	121587 30 0 0 0 0 3 0 4 4 16
vector 19 FanetGpsrSecure.host[19].wlan[0].radio radioMode:vector ETV
attr interpolationmode sample-hold
attr source radioModeChanged
attr title "Radio mode, vector"
19	121617 30 0 0 0 0 3 0 4 4 16
vector 20 FanetGpsrSecure.host[20].wlan[0].radio radioMode:vector ETV
attr interpolationmode sample-hold
attr source radioModeChanged
attr title "Radio mode, vector"
20	121647 30 0 0 0 0 3 0 4 4 16
vector 21 FanetGpsrSecure.host[21].wlan[0].radio radioMode:vector ETV
attr interpolationmode sample-hold
attr source radioModeChanged
attr title "Radio mode, vector"
21	121677 30 0 0 0 0 3 0 4 4 16
vector 22 FanetGpsrSecure.host[22].wlan[0].radio radioMode:vector ETV
attr interpolationmode sample-hold
attr source radioModeChanged
attr title "Radio mode, vector"
22	121707 30 0 0 0 0 3 0 4 4 16
vector 23 FanetGpsrSecure.host[23].wlan[0].radio radioMode:vector ETV
attr interpolationmode sample-hold
attr source radioModeChanged
attr title "Radio mode, vector"
23	121737 30 0 0 0 0 3 0 4 4 16
vector 24 FanetGpsrSecure.host[24].wlan[0].radio radioMode:vector ETV
attr interpolationmode sample-hold
attr source radioModeChanged
attr title "Radio mode, vector"
24	121767 30 0 0 0 0 3 0 4 4 16
vector 25 FanetGpsrSecure.host[25].wlan[0].radio radioMode:vector ETV
attr interpolationmode sample-hold
attr source radioModeChanged
attr title "Radio mode, vector"
25	121797 30 0 0 0 0 3 0 4 4 16
vector 26 FanetGpsrSecure.host[26].wlan[0].radio radioMode:vector ETV
attr interpolationmode sample-hold
attr source radioModeChanged
attr title "Radio mode, vector"
26	121827 30 0 0 0 0 3 0 4 4 16
vector 27 FanetGpsrSecure.host[27].wlan[0].radio radioMode:vector ETV
attr interpolationmode sample-hold
attr source radioModeChanged
attr title "Radio mode, vector"
27	121857 30 0 0 0 0 3 0 4 4 16
vector 28 FanetGpsrSecure.host[28].wlan[0].radio radioMode:vector ETV
attr interpolationmode sample-hold
attr source radioModeChanged
attr title "Radio mode, vector"
28	121887 30 0 0 0 0 3 0 4 4 16
vector 29 FanetGpsrSecure.host[29].wlan[0].radio radioMode:vector ETV
attr interpolationmode sample-hold
attr source radioModeChanged
attr title "Radio mode, vector"
29	121917 30 0 0 0 0 3 0 4 4 16
vector 30 FanetGpsrSecure.host[30].wlan[0].radio radioMode:vector ETV
attr interpolationmode sample-hold
attr source radioModeChanged
attr title "Radio mode, vector"
30	121947 30 0 0 0 0 3 0 4 4 16
vector 31 FanetGpsrSecure.host[31].wlan[0].radio radioMode:vector ETV
attr interpolationmode sample-hold
attr source radioModeChanged
attr title "Radio mode, vector"
31	121977 30 0 0 0 0 3 0 4 4 16
vector 32 FanetGpsrSecure.host[32].wlan[0].radio radioMode:vector ETV
attr interpolationmode sample-hold
attr source radioModeChanged
attr title "Radio mode, vector"
32	122007 30 0 0 0 0 3 0 4 4 16
vector 33 FanetGpsrSecure.host[33].wlan[0].radio radioMode:vector ETV
attr interpolationmode sample-hold
attr source radioModeChanged
attr title "Radio mode, vector"
33	122037 30 0 0 0 0 3 0 4 4 16
vector 34 FanetGpsrSecure.host[34].wlan[0].radio radioMode:vector ETV
attr interpolationmode sample-hold
attr source radioModeChanged
attr title "Radio mode, vector"
34	122067 30 0 0 0 0 3 0 4 4 16
vector 35 FanetGpsrSecure.host[35].wlan[0].radio radioMode:vector ETV
attr interpolationmode sample-hold
attr source radioModeChanged
attr title "Radio mode, vector"
35	122097 30 0 0 0 0 3 0 4 4 16
vector 36 FanetGpsrSecure.host[36].wlan[0].radio radioMode:vector ETV
attr interpolationmode sample-hold
attr source radioModeChanged
attr title "Radio mode, vector"
36	122127 30 0 0 0 0 3 0 4 4 16
vector 37 FanetGpsrSecure.host[37].wlan[0].radio radioMode:vector ETV
attr interpolationmode sample-hold
attr source radioModeChanged
attr title "Radio mode, vector"
37	122157 30 0 0 0 0 3 0 4 4 16
vector 38 FanetGpsrSecure.host[38].wlan[0].radio radioMode:vector ETV
attr interpolationmode sample-hold
attr source radioModeChanged
attr title "Radio mode, vector"
38	122187 30 0 0 0 0 3 0 4 4 16
vector 39 FanetGpsrSecure.host[39].wlan[0].radio radioMode:vector ETV
attr interpolationmode sample-hold
attr source radioModeChanged
attr title "Radio mode, vector"
39	122217 30 0 0 0 0 3 0 4 4 16
vector 40 FanetGpsrSecure.sybil[0].wlan[0].radio radioMode:vector ETV
attr interpolationmode sample-hold
attr source radioModeChanged
attr title "Radio mode, vector"
40	122247 30 0 0 0 0 3 0 4 4 16
vector 41 FanetGpsrSecure.sybil[1].wlan[0].radio radioMode:vector ETV
attr interpolationmode sample-hold
attr source radioModeChanged
attr title "Radio mode, vector"
41	122277 30 0 0 0 0 3 0 4 4 16
vector 42 FanetGpsrSecure.sybil[2].wlan[0].radio radioMode:vector ETV
attr interpolationmode sample-hold
attr source radioModeChanged
attr title "Radio mode, vector"
42	122307 30 0 0 0 0 3 0 4 4 16
vector 43 FanetGpsrSecure.sybil[3].wlan[0].radio radioMode:vector ETV
attr interpolationmode sample-hold
attr source radioModeChanged
attr title "Radio mode, vector"
43	122337 30 0 0 0 0 3 0 4 4 16
vector 44 FanetGpsrSecure.sybil[4].wlan[0].radio radioMode:vector ETV
attr interpolationmode sample-hold
attr source radioModeChanged
attr title "Radio mode, vector"
44	122367 30 0 0 0 0 3 0 4 4 16
vector 45 FanetGpsrSecure.sybil[5].wlan[0].radio radioMode:vector ETV
attr interpolationmode sample-hold
attr source radioModeChanged
attr title "Radio mode, vector"
45	122397 30 0 0 0 0 3 0 4 4 16
vector 46 FanetGpsrSecure.sybil[6].wlan[0].radio radioMode:vector ETV
attr interpolationmode sample-hold
attr source radioModeChanged
attr title "Radio mode, vector"
46	122427 30 0 0 0 0 3 0 4 4 16
vector 47 FanetGpsrSecure.sybil[7].wlan[0].radio radioMode:vector ETV
attr interpolationmode sample-hold
attr source radioModeChanged
attr title "Radio mode, vector"
47	122457 30 0 0 0 0 3 0 4 4 16
vector 48 FanetGpsrSecure.sybil[8].wlan[0].radio radioMode:vector ETV
attr interpolationmode sample-hold
attr source radioModeChanged
attr title "Radio mode, vector"
48	122487 30 0 0 0 0 3 0 4 4 16
vector 49 FanetGpsrSecure.sybil[9].wlan[0].radio radioMode:vector ETV
attr interpolationmode sample-hold
attr source radioModeChanged
attr title "Radio mode, vector"
49	122517 30 0 0 0 0 3 0 4 4 16
vector 50 FanetGpsrSecure.host[0].wlan[0].radio receptionState:vector ETV
attr interpolationmode sample-hold
attr source receptionStateChanged
attr title "Radio reception state, vector"
50	122547 9091 0 127537 0 17.292798254795 331 1 3 661 1651
vector 51 FanetGpsrSecure.host[0].wlan[0].radio transmissionState:vector ETV
attr interpolationmode sample-hold
attr source transmissionStateChanged
attr title "Radio transmission state, vector"
51	131638 1760 0 121358 0 16.548864168971 65 1 2 97 161
vector 52 FanetGpsrSecure.host[1].wlan[0].radio receptionState:vector ETV
attr interpolationmode sample-hold
attr source receptionStateChanged
attr title "Radio reception state, vector"
52	133398 10833 0 127661 0 17.2999133715 395 1 3 789 1971
vector 53 FanetGpsrSecure.host[1].wlan[0].radio transmissionState:vector ETV
attr interpolationmode sample-hold
attr source transmissionStateChanged
attr title "Radio transmission state, vector"
53	144231 1054 0 123341 0 16.683201262159 39 1 2 58 96
vector 54 FanetGpsrSecure.host[2].wlan[0].radio receptionState:vector ETV
attr interpolationmode sample-hold
attr source receptionStateChanged
attr title "Radio reception state, vector"
54	145285 274 0 28422 0 4.38046175716 11 1 3 21 51
vector 55 FanetGpsrSecure.host[2].wlan[0].radio transmissionState:vector ETV
attr interpolationmode sample-hold
attr source transmissionStateChanged
attr title "Radio transmission state, vector"
55	145559 776 0 122540 0 16.582014305879 29 1 2 43 71
vector 56 FanetGpsrSecure.host[3].wlan[0].radio receptionState:vector ETV
attr interpolationmode sample-hold
attr source receptionStateChanged
attr title "Radio reception state, vector"
56	146335 13360 0 127549 0 17.292798684093 487 1 3 973 2431
vector 57 FanetGpsrSecure.host[3].wlan[0].radio transmissionState:vector ETV
attr interpolationmode sample-hold
attr source transmissionStateChanged
attr title "Radio transmission state, vector"
57	159695 996 0 124629 0 16.89508957522 37 1 2 55 91
vector 58 FanetGpsrSecure.host[4].wlan[0].radio receptionState:vector ETV
attr interpolationmode sample-hold
attr source receptionStateChanged
attr title "Radio reception state, vector"
58	160691 7597 0 127127 0 17.25186531514 277 1 3 553 1381
vector 59 FanetGpsrSecure.host[4].wlan[0].radio transmissionState:vector ETV
attr interpolationmode sample-hold
attr source transmissionStateChanged
attr title "Radio transmission state, vector"
59	168288 1004 0 126685 0 17.164333669135 37 1 2 55 91
vector 60 FanetGpsrSecure.host[5].wlan[0].radio receptionState:vector ETV
attr interpolationmode sample-hold
attr source receptionStateChanged
attr title "Radio reception state, vector"
60	169292 14407 0 127250 0 17.252747598549 525 1 3 1049 2621
vector 61 FanetGpsrSecure.host[5].wlan[0].radio transmissionState:vector ETV
attr interpolationmode sample-hold
attr source transmissionStateChanged
attr title "Radio transmission state, vector"
61	183699 894 0 119915 0 16.331506312258 33 1 2 49 81
vector 62 FanetGpsrSecure.host[6].wlan[0].radio receptionState:vector ETV
attr interpolationmode sample-hold
attr source receptionStateChanged
attr title "Radio reception state, vector"
62	184593 15364 0 127433 0 17.289247072138 559 1 3 1117 2791
vector 63 FanetGpsrSecure.host[6].wlan[0].radio transmissionState:vector ETV
attr interpolationmode sample-hold
attr source transmissionStateChanged
attr title "Radio transmission state, vector"
63	199957 1450 0 124021 0 16.738651530715 53 1 2 79 131
vector 64 FanetGpsrSecure.host[7].wlan[0].radio receptionState:vector ETV
attr interpolationmode sample-hold
attr source receptionStateChanged
attr title "Radio reception state, vector"
64	201407 11585 0 127541 0 17.292798449226 421 1 3 841 2101
vector 65 FanetGpsrSecure.host[7].wlan[0].radio transmissionState:vector ETV
attr interpolationmode sample-hold
attr source transmissionStateChanged
attr title "Radio transmission state, vector"
65	212992 1498 0 121468 0 16.548915517725 55 1 2 82 136
vector 66 FanetGpsrSecure.host[8].wlan[0].radio receptionState:vector ETV
attr interpolationmode sample-hold
attr source receptionStateChanged
attr title "Radio reception state, vector"
66	214490 9283 0 126884 0 17.218455160883 339 1 3 677 1691
vector 67 FanetGpsrSecure.host[8].wlan[0].radio transmissionState:vector ETV
attr interpolationmode sample-hold
attr source transmissionStateChanged
attr title "Radio transmission state, vector"
67	223773 878 0 125364 0 16.959808096654 33 1 2 49 81
vector 68 FanetGpsrSecure.host[9].wlan[0].radio receptionState:vector ETV
attr interpolationmode sample-hold
attr source receptionStateChanged
attr title "Radio reception state, vector"
68	224651 7616 0 126686 0 17.164334113833 279 1 3 557 1391
vector 69 FanetGpsrSecure.host[9].wlan[0].radio transmissionState:vector ETV
attr interpolationmode sample-hold
attr source transmissionStateChanged
attr title "Radio transmission state, vector"
69	232267 1054 0 127122 0 17.251864870442 39 1 2 58 96
vector 70 FanetGpsrSecure.host[10].wlan[0].radio receptionState:vector ETV
attr interpolationmode sample-hold
attr source receptionStateChanged
attr title "Radio reception state, vector"
70	233321 9114 0 126225 0 17.054403898942 333 1 3 665 1661
vector 71 FanetGpsrSecure.host[10].wlan[0].radio transmissionState:vector ETV
attr interpolationmode sample-hold
attr source transmissionStateChanged
attr title "Radio transmission state, vector"
71	242435 946 0 120338 0 16.367322749823 35 1 2 52 86
vector 72 FanetGpsrSecure.host[11].wlan[0].radio receptionState:vector ETV
attr interpolationmode sample-hold
attr source receptionStateChanged
attr title "Radio reception state, vector"
72	243381 14788 0 127561 0 17.29279893626 539 1 3 1077 2691
vector 73 FanetGpsrSecure.host[11].wlan[0].radio transmissionState:vector ETV
attr interpolationmode sample-hold
attr source transmissionStateChanged
attr title "Radio transmission state, vector"
73	258169 1659 0 124486 0 16.856757285902 61 1 2 91 151
vector 74 FanetGpsrSecure.host[12].wlan[0].radio receptionState:vector ETV
attr interpolationmode sample-hold
attr source receptionStateChanged
attr title "Radio reception state, vector"
74	259828 3585 0 126888 0 17.218455253954 131 1 3 261 651
vector 75 FanetGpsrSecure.host[12].wlan[0].radio transmissionState:vector ETV
attr interpolationmode sample-hold
attr source transmissionStateChanged
attr title "Radio transmission state, vector"
75	263413 880 0 123905 0 16.730700581 33 1 2 49 81
vector 76 FanetGpsrSecure.host[13].wlan[0].radio receptionState:vector ETV
attr interpolationmode sample-hold
attr source receptionStateChanged
attr title "Radio reception state, vector"
76	264293 10435 0 126864 0 17.218454815989 381 1 3 761 1901
vector 77 FanetGpsrSecure.host[13].wlan[0].radio transmissionState:vector ETV
attr interpolationmode sample-hold
attr source transmissionStateChanged
attr title "Radio transmission state, vector"
77	274728 1000 0 121171 0 16.496610973628 37 1 2 55 91
vector 78 FanetGpsrSecure.host[14].wlan[0].radio receptionState:vector ETV
attr interpolationmode sample-hold
attr source receptionStateChanged
attr title "Radio reception state, vector"
78	275728 6946 0 127669 0 17.299913714046 254 1 3 507 1265
vector 79 FanetGpsrSecure.host[14].wlan[0].radio transmissionState:vector ETV
attr interpolationmode sample-hold
attr source transmissionStateChanged
attr title "Radio transmission state, vector"
79	282674 880 0 122171 0 16.559476959882 33 1 2 49 81
vector 80 FanetGpsrSecure.host[15].wlan[0].radio receptionState:vector ETV
attr interpolationmode sample-hold
attr source receptionStateChanged
attr title "Radio reception state, vector"
80	283554 9022 0 126217 0 17.054403843717 329 1 3 657 1641
vector 81 FanetGpsrSecure.host[15].wlan[0].radio transmissionState:vector ETV
attr interpolationmode sample-hold
attr source transmissionStateChanged
attr title "Radio transmission state, vector"
81	292576 886 0 119011 0 16.182340048849 33 1 2 49 81
vector 82 FanetGpsrSecure.host[16].wlan[0].radio receptionState:vector ETV
attr interpolationmode sample-hold
attr source receptionStateChanged
attr title "Radio reception state, vector"
82	293462 7572 0 127143 0 17.251865504468 277 1 3 553 1381
vector 83 FanetGpsrSecure.host[16].wlan[0].radio transmissionState:vector ETV
attr interpolationmode sample-hold
attr source transmissionStateChanged
attr title "Radio transmission state, vector"
83	301034 890 0 125497 0 16.962158747612 33 1 2 49 81
vector 84 FanetGpsrSecure.host[17].wlan[0].radio receptionState:vector ETV
attr interpolationmode sample-hold
attr source receptionStateChanged
attr title "Radio reception state, vector"
84	301924 10093 0 126868 0 17.218454883089 369 1 3 737 1841
vector 85 FanetGpsrSecure.host[17].wlan[0].radio transmissionState:vector ETV
attr interpolationmode sample-hold
attr source transmissionStateChanged
attr title "Radio transmission state, vector"
85	312017 942 0 121034 0 16.439856980127 35 1 2 52 86
vector 86 FanetGpsrSecure.host[18].wlan[0].radio receptionState:vector ETV
attr interpolationmode sample-hold
attr source receptionStateChanged
attr title "Radio reception state, vector"
86	312959 11791 0 127254 0 17.252747758483 431 1 3 861 2151
vector 87 FanetGpsrSecure.host[18].wlan[0].radio transmissionState:vector ETV
attr interpolationmode sample-hold
attr source transmissionStateChanged
attr title "Radio transmission state, vector"
87	324750 998 0 124815 0 16.902489359157 37 1 2 55 91
vector 88 FanetGpsrSecure.host[19].wlan[0].radio receptionState:vector ETV
attr interpolationmode sample-hold
attr source receptionStateChanged
attr title "Radio reception state, vector"
88	325748 7916 0 126118 0 17.053303015546 289 1 3 577 1441
vector 89 FanetGpsrSecure.host[19].wlan[0].radio transmissionState:vector ETV
attr interpolationmode sample-hold
attr source transmissionStateChanged
attr title "Radio transmission state, vector"
89	333664 888 0 126216 0 17.054403422296 33 1 2 49 81
vector 90 FanetGpsrSecure.host[20].wlan[0].radio receptionState:vector ETV
attr interpolationmode sample-hold
attr source receptionStateChanged
attr title "Radio reception state, vector"
90	334552 11167 0 127290 0 17.252748194047 407 1 3 813 2031
vector 91 FanetGpsrSecure.host[20].wlan[0].radio transmissionState:vector ETV
attr interpolationmode sample-hold
attr source transmissionStateChanged
attr title "Radio transmission state, vector"
91	345719 1610 0 121699 0 16.549018191401 59 1 2 88 146
vector 92 FanetGpsrSecure.host[21].wlan[0].radio receptionState:vector ETV
attr interpolationmode sample-hold
attr source receptionStateChanged
attr title "Radio reception state, vector"
92	347329 7366 0 127294 0 17.25274820095 269 1 3 537 1341
vector 93 FanetGpsrSecure.host[21].wlan[0].radio transmissionState:vector ETV
attr interpolationmode sample-hold
attr source transmissionStateChanged
attr title "Radio transmission state, vector"
93	354695 828 0 123778 0 16.724208043785 31 1 2 46 76
vector 94 FanetGpsrSecure.host[22].wlan[0].radio receptionState:vector ETV
attr interpolationmode sample-hold
attr source receptionStateChanged
attr title "Radio reception state, vector"
94	355523 11500 0 127677 0 17.299913946524 419 1 3 837 2091
vector 95 FanetGpsrSecure.host[22].wlan[0].radio transmissionState:vector ETV
attr interpolationmode sample-hold
attr source transmissionStateChanged
attr title "Radio transmission state, vector"
95	367023 998 0 126349 0 17.067520066529 37 1 2 55 91
vector 96 FanetGpsrSecure.host[23].wlan[0].radio receptionState:vector ETV
attr interpolationmode sample-hold
attr source receptionStateChanged
attr title "Radio reception state, vector"
96	368021 3744 0 126110 0 17.053302809468 137 1 3 273 681
vector 97 FanetGpsrSecure.host[23].wlan[0].radio transmissionState:vector ETV
attr interpolationmode sample-hold
attr source transmissionStateChanged
attr title "Radio transmission state, vector"
97	371765 886 0 123661 0 16.713898384376 33 1 2 49 81
vector 98 FanetGpsrSecure.host[24].wlan[0].radio receptionState:vector ETV
attr interpolationmode sample-hold
attr source receptionStateChanged
attr title "Radio reception state, vector"
98	372651 14356 0 127258 0 17.252747865296 523 1 3 1045 2611
vector 99 FanetGpsrSecure.host[24].wlan[0].radio transmissionState:vector ETV
attr interpolationmode sample-hold
attr source transmissionStateChanged
attr title "Radio transmission state, vector"
99	387007 890 0 126489 0 17.096506873509 33 1 2 49 81
vector 100 FanetGpsrSecure.host[25].wlan[0].radio receptionState:vector ETV
attr interpolationmode sample-hold
attr source receptionStateChanged
attr title "Radio reception state, vector"
100	387897 6505 0 127139 0 17.251865491535 229 1 3 457 1141
vector 101 FanetGpsrSecure.host[25].wlan[0].radio transmissionState:vector ETV
attr interpolationmode sample-hold
attr source transmissionStateChanged
attr title "Radio transmission state, vector"
101	394402 925 0 122416 0 16.579406041082 33 1 2 49 81
vector 102 FanetGpsrSecure.host[26].wlan[0].radio receptionState:vector ETV
attr interpolationmode sample-hold
attr source receptionStateChanged
attr title "Radio reception state, vector"
102	395327 11637 0 127266 0 17.252747922112 409 1 3 817 2041
vector 103 FanetGpsrSecure.host[26].wlan[0].radio transmissionState:vector ETV
attr interpolationmode sample-hold
attr source transmissionStateChanged
attr title "Radio transmission state, vector"
103	406964 865 0 122951 0 16.626230419046 31 1 2 46 76
vector 104 FanetGpsrSecure.host[27].wlan[0].radio receptionState:vector ETV
attr interpolationmode sample-hold
attr source receptionStateChanged
attr title "Radio reception state, vector"
104	407829 11340 0 126876 0 17.218455117987 399 1 3 797 1991
vector 105 FanetGpsrSecure.host[27].wlan[0].radio transmissionState:vector ETV
attr interpolationmode sample-hold
attr source transmissionStateChanged
attr title "Radio transmission state, vector"
105	419169 921 0 117145 0 15.946570021465 33 1 2 49 81
vector 106 FanetGpsrSecure.host[28].wlan[0].radio receptionState:vector ETV
attr interpolationmode sample-hold
attr source receptionStateChanged
attr title "Radio reception state, vector"
106	420090 6045 0 127147 0 17.251865589781 213 1 3 425 1061
vector 107 FanetGpsrSecure.host[28].wlan[0].radio transmissionState:vector ETV
attr interpolationmode sample-hold
attr source transmissionStateChanged
attr title "Radio transmission state, vector"
107	426135 1149 0 119195 0 16.221045728206 41 1 2 61 101
vector 108 FanetGpsrSecure.host[29].wlan[0].radio receptionState:vector ETV
attr interpolationmode sample-hold
attr source receptionStateChanged
attr title "Radio reception state, vector"
108	427284 15100 0 126514 0 17.096507356869 531 1 3 1061 2651
vector 109 FanetGpsrSecure.host[29].wlan[0].radio transmissionState:vector ETV
attr interpolationmode sample-hold
attr source transmissionStateChanged
attr title "Radio transmission state, vector"
109	442384 981 0 127249 0 17.252747381936 35 1 2 52 86
vector 110 FanetGpsrSecure.host[30].wlan[0].radio receptionState:vector ETV
attr interpolationmode sample-hold
attr source receptionStateChanged
attr title "Radio reception state, vector"
110	443365 6149 0 126366 0 17.067520894794 217 1 3 433 1081
vector 111 FanetGpsrSecure.host[30].wlan[0].radio transmissionState:vector ETV
attr interpolationmode sample-hold
attr source transmissionStateChanged
attr title "Radio transmission state, vector"
111	449514 1097 0 127660 0 17.299913118259 39 1 2 58 96
vector 112 FanetGpsrSecure.host[31].wlan[0].radio receptionState:vector ETV
attr interpolationmode sample-hold
attr source receptionStateChanged
attr title "Radio reception state, vector"
112	450611 2590 0 127005 0 17.226568137625 91 1 3 181 451
vector 113 FanetGpsrSecure.host[31].wlan[0].radio transmissionState:vector ETV
attr interpolationmode sample-hold
attr source transmissionStateChanged
attr title "Radio transmission state, vector"
113	453201 1035 0 120656 0 16.405695434558 37 1 2 55 91
vector 114 FanetGpsrSecure.host[32].wlan[0].radio receptionState:vector ETV
attr interpolationmode sample-hold
attr source receptionStateChanged
attr title "Radio reception state, vector"
114	454236 9518 0 126880 0 17.218455149629 335 1 3 669 1671
vector 115 FanetGpsrSecure.host[32].wlan[0].radio transmissionState:vector ETV
attr interpolationmode sample-hold
attr source transmissionStateChanged
attr title "Radio transmission state, vector"
115	463754 1043 0 124352 0 16.826518605827 37 1 2 55 91
vector 116 FanetGpsrSecure.host[33].wlan[0].radio receptionState:vector ETV
attr interpolationmode sample-hold
attr source receptionStateChanged
attr title "Radio reception state, vector"
116	464797 10993 0 127286 0 17.252748193014 387 1 3 773 1931
vector 117 FanetGpsrSecure.host[33].wlan[0].radio transmissionState:vector ETV
attr interpolationmode sample-hold
attr source transmissionStateChanged
attr title "Radio transmission state, vector"
117	475790 859 0 118743 0 16.124693031321 31 1 2 46 76
vector 118 FanetGpsrSecure.host[34].wlan[0].radio receptionState:vector ETV
attr interpolationmode sample-hold
attr source receptionStateChanged
attr title "Radio reception state, vector"
118	476649 13546 0 127533 0 17.292798245028 475 1 3 949 2371
vector 119 FanetGpsrSecure.host[34].wlan[0].radio transmissionState:vector ETV
attr interpolationmode sample-hold
attr source transmissionStateChanged
attr title "Radio transmission state, vector"
119	490195 1039 0 127396 0 17.289246124346 37 1 2 55 91
vector 120 FanetGpsrSecure.host[35].wlan[0].radio receptionState:vector ETV
attr interpolationmode sample-hold
attr source receptionStateChanged
attr title "Radio reception state, vector"
120	491234 14576 0 127429 0 17.28924700303 513 1 3 1025 2561
vector 121 FanetGpsrSecure.host[35].wlan[0].radio transmissionState:vector ETV
attr interpolationmode sample-hold
attr source transmissionStateChanged
attr title "Radio transmission state, vector"
121	505810 863 0 125673 0 17.015416591559 31 1 2 46 76
vector 122 FanetGpsrSecure.host[36].wlan[0].radio receptionState:vector ETV
attr interpolationmode sample-hold
attr source receptionStateChanged
attr title "Radio reception state, vector"
122	506673 10993 0 127681 0 17.299914077156 387 1 3 773 1931
vector 123 FanetGpsrSecure.host[36].wlan[0].radio transmissionState:vector ETV
attr interpolationmode sample-hold
attr source transmissionStateChanged
attr title "Radio transmission state, vector"
123	517666 973 0 125952 0 17.04530802266 35 1 2 52 86
vector 124 FanetGpsrSecure.host[37].wlan[0].radio receptionState:vector ETV
attr interpolationmode sample-hold
attr source receptionStateChanged
attr title "Radio reception state, vector"
124	518639 10308 0 127397 0 17.289246402851 363 1 3 725 1811
vector 125 FanetGpsrSecure.host[37].wlan[0].radio transmissionState:vector ETV
attr interpolationmode sample-hold
attr source transmissionStateChanged
attr title "Radio transmission state, vector"
125	528947 1487 0 127532 0 17.292797966523 53 1 2 79 131
vector 126 FanetGpsrSecure.host[38].wlan[0].radio receptionState:vector ETV
attr interpolationmode sample-hold
attr source receptionStateChanged
attr title "Radio reception state, vector"
126	530434 8483 0 126221 0 17.054403888021 299 1 3 597 1491
vector 127 FanetGpsrSecure.host[38].wlan[0].radio transmissionState:vector ETV
attr interpolationmode sample-hold
attr source transmissionStateChanged
attr title "Radio transmission state, vector"
127	538917 969 0 124953 0 16.933006285819 35 1 2 52 86
vector 128 FanetGpsrSecure.host[39].wlan[0].radio receptionState:vector ETV
attr interpolationmode sample-hold
attr source receptionStateChanged
attr title "Radio reception state, vector"
128	539886 6635 0 127545 0 17.292798660588 233 1 3 465 1161
vector 129 FanetGpsrSecure.host[39].wlan[0].radio transmissionState:vector ETV
attr interpolationmode sample-hold
attr source transmissionStateChanged
attr title "Radio transmission state, vector"
129	546521 919 0 122296 0 16.563695163597 33 1 2 49 81
vector 130 FanetGpsrSecure.sybil[0].wlan[0].radio receptionState:vector ETV
attr interpolationmode sample-hold
attr source receptionStateChanged
attr title "Radio reception state, vector"
130	547440 10542 0 126872 0 17.218455010774 371 1 3 741 1851
vector 131 FanetGpsrSecure.sybil[0].wlan[0].radio transmissionState:vector ETV
attr interpolationmode sample-hold
attr source transmissionStateChanged
attr title "Radio transmission state, vector"
131	557982 867 0 125227 0 16.948586419123 31 1 2 46 76
vector 132 FanetGpsrSecure.sybil[1].wlan[0].radio receptionState:vector ETV
attr interpolationmode sample-hold
attr source receptionStateChanged
attr title "Radio reception state, vector"
132	558849 12949 0 127425 0 17.289246985741 455 1 3 909 2271
vector 133 FanetGpsrSecure.sybil[1].wlan[0].radio transmissionState:vector ETV
attr interpolationmode sample-hold
attr source transmissionStateChanged
attr title "Radio transmission state, vector"
133	571798 981 0 123525 0 16.708644759508 35 1 2 52 86
vector 134 FanetGpsrSecure.sybil[2].wlan[0].radio receptionState:vector ETV
attr interpolationmode sample-hold
attr source receptionStateChanged
attr title "Radio reception state, vector"
134	572779 7054 0 127665 0 17.299913616173 248 1 3 495 1235
vector 135 FanetGpsrSecure.sybil[2].wlan[0].radio transmissionState:vector ETV
attr interpolationmode sample-hold
attr source transmissionStateChanged
attr title "Radio transmission state, vector"
135	579833 925 0 126089 0 17.053302018569 33 1 2 49 81
vector 136 FanetGpsrSecure.sybil[3].wlan[0].radio receptionState:vector ETV
attr interpolationmode sample-hold
attr source receptionStateChanged
attr title "Radio reception state, vector"
136	580758 8205 0 127298 0 17.252748315233 289 1 3 577 1441
vector 137 FanetGpsrSecure.sybil[3].wlan[0].radio transmissionState:vector ETV
attr interpolationmode sample-hold
attr source transmissionStateChanged
attr title "Radio transmission state, vector"
137	588963 1031 0 124171 0 16.763624135304 37 1 2 55 91
vector 138 FanetGpsrSecure.sybil[4].wlan[0].radio receptionState:vector ETV
attr interpolationmode sample-hold
attr source receptionStateChanged
attr title "Radio reception state, vector"
138	589994 8447 0 127421 0 17.289246982976 297 1 3 593 1481
vector 139 FanetGpsrSecure.sybil[4].wlan[0].radio transmissionState:vector ETV
attr interpolationmode sample-hold
attr source transmissionStateChanged
attr title "Radio transmission state, vector"
139	598441 1041 0 126996 0 17.226567271296 37 1 2 55 91
vector 140 FanetGpsrSecure.sybil[5].wlan[0].radio receptionState:vector ETV
attr interpolationmode sample-hold
attr source receptionStateChanged
attr title "Radio reception state, vector"
140	599482 6109 0 127131 0 17.251865447249 215 1 3 429 1071
vector 141 FanetGpsrSecure.sybil[5].wlan[0].radio transmissionState:vector ETV
attr interpolationmode sample-hold
attr source transmissionStateChanged
attr title "Radio transmission state, vector"
141	605591 919 0 123218 0 16.643570121743 33 1 2 49 81
vector 142 FanetGpsrSecure.sybil[6].wlan[0].radio receptionState:vector ETV
attr interpolationmode sample-hold
attr source receptionStateChanged
attr title "Radio reception state, vector"
142	606510 10227 0 127673 0 17.29991378816 359 1 3 717 1791
vector 143 FanetGpsrSecure.sybil[6].wlan[0].radio transmissionState:vector ETV
attr interpolationmode sample-hold
attr source transmissionStateChanged
attr title "Radio transmission state, vector"
143	616737 979 0 123088 0 16.641182239064 35 1 2 52 86
vector 144 FanetGpsrSecure.sybil[7].wlan[0].radio receptionState:vector ETV
attr interpolationmode sample-hold
attr source receptionStateChanged
attr title "Radio reception state, vector"
144	617716 11688 0 127302 0 17.252748315406 411 1 3 821 2051
vector 145 FanetGpsrSecure.sybil[7].wlan[0].radio transmissionState:vector ETV
attr interpolationmode sample-hold
attr source transmissionStateChanged
attr title "Radio transmission state, vector"
145	629404 923 0 125816 0 17.037988226992 33 1 2 49 81
vector 146 FanetGpsrSecure.sybil[8].wlan[0].radio receptionState:vector ETV
attr interpolationmode sample-hold
attr source receptionStateChanged
attr title "Radio reception state, vector"
146	630327 13531 0 127262 0 17.252747912343 477 1 3 953 2381
vector 147 FanetGpsrSecure.sybil[8].wlan[0].radio transmissionState:vector ETV
attr interpolationmode sample-hold
attr source transmissionStateChanged
attr title "Radio transmission state, vector"
147	643858 1039 0 125083 0 16.936329747216 37 1 2 55 91
vector 148 FanetGpsrSecure.sybil[9].wlan[0].radio receptionState:vector ETV
attr interpolationmode sample-hold
attr source receptionStateChanged
attr title "Radio reception state, vector"
148	644897 9787 0 126710 0 17.164334597398 345 1 3 689 1721
vector 149 FanetGpsrSecure.sybil[9].wlan[0].radio transmissionState:vector ETV
attr interpolationmode sample-hold
attr source transmissionStateChanged
attr title "Radio transmission state, vector"
149	654684 1096 0 126863 0 17.218454404628 39 1 2 58 96
vector 150 FanetGpsrSecure.host[7].wlan[0].mac rcvdPkFromHl:vector(packetBytes) ETV
attr interpolationmode none
attr source packetReceivedFromUpper
attr title "packets received from higher layer, vector(packetBytes)"
150	655780 825 253 121368 0.531838923926 16.548864851058 27 104 124 3008 337632
vector 151 FanetGpsrSecure.host[7].wlan[0].mac.queue packetPushed:vector(packetBytes) ETV
attr interpolationmode none
attr title "packet pushed, vector(packetBytes)"
151	656605 825 253 121368 0.531838923926 16.548864851058 27 104 124 3008 337632
vector 152 FanetGpsrSecure.host[7].wlan[0].mac.queue queueLength:vector ETV
attr interpolationmode sample-hold
attr source "count(packetPushed) - count(packetPopped) - count(packetRemoved) - count(packetDropped)"
attr title "queue length, vector"
152	657430 1542 253 121368 0.531838923926 16.548864851058 54 0 1 27 27
vector 153 FanetGpsrSecure.host[7].wlan[0].mac.queue packetPopped:vector(packetBytes) ETV
attr interpolationmode none
attr title "packet popped, vector(packetBytes)"
153	658972 825 253 121368 0.531838923926 16.548864851058 27 104 124 3008 337632
vector 154 FanetGpsrSecure.host[7].wlan[0].mac.queue queueingTime:vector ETV
attr interpolationmode none
attr source queueingTime(packetPopped)
attr title "queueing times, vector"
attr unit s
154	659797 771 253 121368 0.531838923926 16.548864851058 27 0 0 0 0
vector 155 FanetGpsrSecure.host[7].wlan[0].mac sentDownPk:vector(packetBytes) ETV
attr interpolationmode none
attr source packetSentToLower
attr title "packets sent to lower layer, vector(packetBytes)"
155	660568 825 253 121368 0.531838923926 16.548864851058 27 120 140 3440 440800
vector 156 FanetGpsrSecure.host[11].wlan[0].mac rcvdPkFromLl:vector(packetBytes) ETV
attr interpolationmode none
attr source packetReceivedFromLower
attr title "packets received from lower layer, vector(packetBytes)"
156	661393 8200 306 127562 0.531883369052 17.29279893626 269 120 140 33160 4102400
vector 157 FanetGpsrSecure.host[11].wlan[0].mac passedUpPk:vector(packetBytes) ETV
attr interpolationmode none
attr source packetSentToUpper
attr title "packets passed to higher layer, vector(packetBytes)"
157	669593 7272 306 127562 0.531883369052 17.29279893626 239 104 124 25136 2648864
vector 158 FanetGpsrSecure.host[37].wlan[0].mac rcvdPkFromLl:vector(packetBytes) ETV
attr interpolationmode none
attr source packetReceivedFromLower
attr title "packets received from lower layer, vector(packetBytes)"
158	676865 5510 310 127398 0.531883413135 17.289246402851 181 120 140 22540 2819600
vector 159 FanetGpsrSecure.host[37].wlan[0].mac passedUpPk:vector(packetBytes) ETV
attr interpolationmode none
attr source packetSentToUpper
attr title "packets passed to higher layer, vector(packetBytes)"
159	682375 4536 310 127398 0.531883413135 17.289246402851 149 104 124 15676 1652624
vector 160 FanetGpsrSecure.host[35].wlan[0].mac rcvdPkFromLl:vector(packetBytes) ETV
attr interpolationmode none
attr source packetReceivedFromLower
attr title "packets received from lower layer, vector(packetBytes)"
160	686911 7799 314 127430 0.53188347528 17.28924700303 256 120 140 31440 3873600
vector 161 FanetGpsrSecure.host[35].wlan[0].mac passedUpPk:vector(packetBytes) ETV
attr interpolationmode none
attr source packetSentToUpper
attr title "packets passed to higher layer, vector(packetBytes)"
161	694710 6695 314 127430 0.53188347528 17.28924700303 220 104 104 22880 2379520
vector 162 FanetGpsrSecure.host[34].wlan[0].mac rcvdPkFromLl:vector(packetBytes) ETV
attr interpolationmode none
attr source packetReceivedFromLower
attr title "packets received from lower layer, vector(packetBytes)"
162	701405 7238 318 127534 0.531883481457 17.292798245028 237 120 140 29640 3724800
vector 163 FanetGpsrSecure.host[34].wlan[0].mac passedUpPk:vector(packetBytes) ETV
attr interpolationmode none
attr source packetSentToUpper
attr title "packets passed to higher layer, vector(packetBytes)"
163	708643 5403 318 127534 0.531883481457 17.292798245028 177 104 104 18408 1914432
vector 164 FanetGpsrSecure.host[0].wlan[0].mac rcvdPkFromLl:vector(packetBytes) ETV
attr interpolationmode none
attr source packetReceivedFromLower
attr title "packets received from lower layer, vector(packetBytes)"
164	714046 5036 322 127538 0.531883560508 17.292798254795 165 120 140 20260 2495600
vector 165 FanetGpsrSecure.host[0].wlan[0].mac passedUpPk:vector(packetBytes) ETV
attr interpolationmode none
attr source packetSentToUpper
attr title "packets passed to higher layer, vector(packetBytes)"
165	719082 4667 322 127538 0.531883560508 17.292798254795 153 104 124 16132 1705008
vector 166 FanetGpsrSecure.host[3].wlan[0].mac rcvdPkFromLl:vector(packetBytes) ETV
attr interpolationmode none
attr source packetReceivedFromLower
attr title "packets received from lower layer, vector(packetBytes)"
166	723749 7400 326 127550 0.531883604807 17.292798684093 243 120 140 30160 3759200
vector 167 FanetGpsrSecure.host[3].wlan[0].mac passedUpPk:vector(packetBytes) ETV
attr interpolationmode none
attr source packetSentToUpper
attr title "packets passed to higher layer, vector(packetBytes)"
167	731149 5875 326 127550 0.531883604807 17.292798684093 193 104 104 20072 2087488
vector 168 FanetGpsrSecure.host[6].wlan[0].mac rcvdPkFromLl:vector(packetBytes) ETV
attr interpolationmode none
attr source packetReceivedFromLower
attr title "packets received from lower layer, vector(packetBytes)"
168	737024 8514 330 127434 0.53188381333 17.289247072138 279 120 140 34200 4204800
vector 169 FanetGpsrSecure.host[6].wlan[0].mac passedUpPk:vector(packetBytes) ETV
attr interpolationmode none
attr source packetSentToUpper
attr title "packets passed to higher layer, vector(packetBytes)"
169	745538 7717 330 127434 0.53188381333 17.289247072138 253 104 124 26512 2782048
vector 170 FanetGpsrSecure.sybil[1].wlan[0].mac rcvdPkFromLl:vector(packetBytes) ETV
attr interpolationmode none
attr source packetReceivedFromLower
attr title "packets received from lower layer, vector(packetBytes)"
170	753255 6928 334 127426 0.531883827416 17.289246985741 227 120 140 28160 3508000
vector 171 FanetGpsrSecure.sybil[1].wlan[0].mac passedUpPk:vector(packetBytes) ETV
attr interpolationmode none
attr source packetSentToUpper
attr title "packets passed to higher layer, vector(packetBytes)"
171	760183 5512 334 127426 0.531883827416 17.289246985741 181 104 104 18824 1957696
vector 172 FanetGpsrSecure.host[16].wlan[0].mac rcvdPkFromLl:vector(packetBytes) ETV
attr interpolationmode none
attr source packetReceivedFromLower
attr title "packets received from lower layer, vector(packetBytes)"
172	765695 4195 338 127144 0.531883881206 17.251865504468 138 120 140 16840 2060000
vector 173 FanetGpsrSecure.host[16].wlan[0].mac passedUpPk:vector(packetBytes) ETV
attr interpolationmode none
attr source packetSentToUpper
attr title "packets passed to higher layer, vector(packetBytes)"
173	769890 3767 338 127144 0.531883881206 17.251865504468 124 104 104 12896 1341184
vector 174 FanetGpsrSecure.host[0].app[0] pingTxSeq:vector ETV
attr interpolationmode none
attr title "ping tx seq, vector"
174	773657 490 382 121305 0.548813502304 16.548813502304 17 0 16 136 1496
vector 175 FanetGpsrSecure.host[0].wlan[0].mac rcvdPkFromHl:vector(packetBytes) ETV
attr interpolationmode none
attr source packetReceivedFromUpper
attr title "packets received from higher layer, vector(packetBytes)"
175	774147 971 385 121307 0.548813502304 16.548813502304 32 104 124 3668 423632
vector 176 FanetGpsrSecure.host[0].wlan[0].mac.queue packetPushed:vector(packetBytes) ETV
attr interpolationmode none
attr title "packet pushed, vector(packetBytes)"
176	775118 971 385 121307 0.548813502304 16.548813502304 32 104 124 3668 423632
vector 177 FanetGpsrSecure.host[0].wlan[0].mac.queue queueLength:vector ETV
attr interpolationmode sample-hold
attr source "count(packetPushed) - count(packetPopped) - count(packetRemoved) - count(packetDropped)"
attr title "queue length, vector"
177	776089 1814 385 121307 0.548813502304 16.548813502304 64 0 1 32 32
vector 178 FanetGpsrSecure.host[0].wlan[0].mac.queue packetPopped:vector(packetBytes) ETV
attr interpolationmode none
attr title "packet popped, vector(packetBytes)"
178	777903 971 385 121307 0.548813502304 16.548813502304 32 104 124 3668 423632
vector 179 FanetGpsrSecure.host[0].wlan[0].mac.queue queueingTime:vector ETV
attr interpolationmode none
attr source queueingTime(packetPopped)
attr title "queueing times, vector"
attr unit s
179	778874 907 385 121307 0.548813502304 16.548813502304 32 0 0 0 0
vector 180 FanetGpsrSecure.host[0].wlan[0].mac sentDownPk:vector(packetBytes) ETV
attr interpolationmode none
attr source packetSentToLower
attr title "packets sent to lower layer, vector(packetBytes)"
180	779781 971 385 121307 0.548813502304 16.548813502304 32 120 140 4180 549200
vector 181 FanetGpsrSecure.host[34].wlan[0].mac packetDropNotAddressedToUs:vector(packetBytes) ETV
attr interpolationmode none
attr source packetDropReasonIsNotAddressedToUs(packetDropped)
attr title "packet drop: not addressed to us, vector(packetBytes)"
181	780752 1835 438 121929 0.548864292247 16.549121623005 60 140 140 8400 1176000
vector 182 FanetGpsrSecure.host[37].wlan[0].mac packetDropNotAddressedToUs:vector(packetBytes) ETV
attr interpolationmode none
attr source packetDropReasonIsNotAddressedToUs(packetDropped)
attr title "packet drop: not addressed to us, vector(packetBytes)"
182	782587 974 440 121472 0.548864478079 16.548916000428 32 140 140 4480 627200
vector 183 FanetGpsrSecure.host[7].wlan[0].mac rcvdPkFromLl:vector(packetBytes) ETV
attr interpolationmode none
attr source packetReceivedFromLower
attr title "packets received from lower layer, vector(packetBytes)"
183	783561 6415 442 127542 0.548864805676 17.292798449226 210 120 140 26200 3284000
vector 184 FanetGpsrSecure.host[7].wlan[0].mac passedUpPk:vector(packetBytes) ETV
attr interpolationmode none
attr source packetSentToUpper
attr title "packets passed to higher layer, vector(packetBytes)"
184	789976 5223 442 127542 0.548864805676 17.292798449226 171 104 124 18004 1899696
vector 185 FanetGpsrSecure.host[3].wlan[0].mac packetDropNotAddressedToUs:vector(packetBytes) ETV
attr interpolationmode none
attr source packetDropReasonIsNotAddressedToUs(packetDropped)
attr title "packet drop: not addressed to us, vector(packetBytes)"
185	795199 1525 445 121940 0.548864902172 16.54912206207 50 140 140 7000 980000
vector 186 FanetGpsrSecure.host[39].wlan[0].mac rcvdPkFromLl:vector(packetBytes) ETV
attr interpolationmode none
attr source packetReceivedFromLower
attr title "packets received from lower layer, vector(packetBytes)"
186	796724 3545 447 127546 0.548864908966 17.292798660588 116 120 140 14640 1857600
vector 187 FanetGpsrSecure.host[39].wlan[0].mac packetDropNotAddressedToUs:vector(packetBytes) ETV
attr interpolationmode none
attr source packetDropReasonIsNotAddressedToUs(packetDropped)
attr title "packet drop: not addressed to us, vector(packetBytes)"
187	800269 1107 447 121938 0.548864908966 16.549122038565 36 140 140 5040 705600
vector 188 FanetGpsrSecure.host[1].wlan[0].mac rcvdPkFromLl:vector(packetBytes) ETV
attr interpolationmode none
attr source packetReceivedFromLower
attr title "packets received from lower layer, vector(packetBytes)"
188	801376 6002 449 127662 0.548865066979 17.2999133715 197 120 140 24160 2972000
vector 189 FanetGpsrSecure.host[1].wlan[0].mac packetDropNotAddressedToUs:vector(packetBytes) ETV
attr interpolationmode none
attr source packetDropReasonIsNotAddressedToUs(packetDropped)
attr title "packet drop: not addressed to us, vector(packetBytes)"
189	807378 796 449 121944 0.548865066979 16.549122290604 26 140 140 3640 509600
vector 190 FanetGpsrSecure.host[11].wlan[0].mac packetDropNotAddressedToUs:vector(packetBytes) ETV
attr interpolationmode none
attr source packetDropReasonIsNotAddressedToUs(packetDropped)
attr title "packet drop: not addressed to us, vector(packetBytes)"
190	808174 928 451 121946 0.548865081426 16.549122314237 30 140 140 4200 588000
vector 191 FanetGpsrSecure.host[35].wlan[0].mac packetDropNotAddressedToUs:vector(packetBytes) ETV
attr interpolationmode none
attr source packetDropReasonIsNotAddressedToUs(packetDropped)
attr title "packet drop: not addressed to us, vector(packetBytes)"
191	809102 1104 453 121818 0.548865123009 16.549070169357 36 140 140 5040 705600
vector 192 FanetGpsrSecure.sybil[4].wlan[0].mac rcvdPkFromLl:vector(packetBytes) ETV
attr interpolationmode none
attr source packetReceivedFromLower
attr title "packets received from lower layer, vector(packetBytes)"
192	810206 4529 455 127422 0.54886516159 17.289246982976 148 120 140 18500 2323600
vector 193 FanetGpsrSecure.sybil[4].wlan[0].mac packetDropNotAddressedToUs:vector(packetBytes) ETV
attr interpolationmode none
attr source packetDropReasonIsNotAddressedToUs(packetDropped)
attr title "packet drop: not addressed to us, vector(packetBytes)"
193	814735 1135 455 121614 0.54886516159 16.548967897007 37 140 140 5180 725200
vector 194 FanetGpsrSecure.host[12].wlan[0].mac rcvdPkFromHl:vector(packetBytes) ETV
attr interpolationmode none
attr source packetReceivedFromUpper
attr title "packets received from higher layer, vector(packetBytes)"
194	815870 483 498 123854 0.550370058743 16.730656581 16 104 104 1664 173056
vector 195 FanetGpsrSecure.host[12].wlan[0].mac.queue packetPushed:vector(packetBytes) ETV
attr interpolationmode none
attr title "packet pushed, vector(packetBytes)"
195	816353 483 498 123854 0.550370058743 16.730656581 16 104 104 1664 173056
vector 196 FanetGpsrSecure.host[12].wlan[0].mac.queue queueLength:vector ETV
attr interpolationmode sample-hold
attr source "count(packetPushed) - count(packetPopped) - count(packetRemoved) - count(packetDropped)"
attr title "queue length, vector"
196	816836 902 498 123854 0.550370058743 16.730656581 32 0 1 16 16
vector 197 FanetGpsrSecure.host[12].wlan[0].mac.queue packetPopped:vector(packetBytes) ETV
attr interpolationmode none
attr title "packet popped, vector(packetBytes)"
197	817738 483 498 123854 0.550370058743 16.730656581 16 104 104 1664 173056
vector 198 FanetGpsrSecure.host[12].wlan[0].mac.queue queueingTime:vector ETV
attr interpolationmode none
attr source queueingTime(packetPopped)
attr title "queueing times, vector"
attr unit s
198	818221 451 498 123854 0.550370058743 16.730656581 16 0 0 0 0
vector 199 FanetGpsrSecure.host[12].wlan[0].mac sentDownPk:vector(packetBytes) ETV
attr interpolationmode none
attr source packetSentToLower
attr title "packets sent to lower layer, vector(packetBytes)"
199	818672 483 498 123854 0.550370058743 16.730656581 16 120 120 1920 230400
vector 200 FanetGpsrSecure.host[32].wlan[0].mac rcvdPkFromLl:vector(packetBytes) ETV
attr interpolationmode none
attr source packetReceivedFromLower
attr title "packets received from lower layer, vector(packetBytes)"
200	819155 5088 551 126881 0.55041471604 17.218455149629 167 120 120 20040 2404800
vector 201 FanetGpsrSecure.host[32].wlan[0].mac passedUpPk:vector(packetBytes) ETV
attr interpolationmode none
attr source packetSentToUpper
attr title "packets passed to higher layer, vector(packetBytes)"
201	824243 5088 551 126881 0.55041471604 17.218455149629 167 104 104 17368 1806272
vector 202 FanetGpsrSecure.sybil[9].wlan[0].mac rcvdPkFromLl:vector(packetBytes) ETV
attr interpolationmode none
attr source packetReceivedFromLower
attr title "packets received from lower layer, vector(packetBytes)"
202	829331 5232 555 126711 0.550414927009 17.164334597398 172 120 120 20640 2476800
vector 203 FanetGpsrSecure.sybil[9].wlan[0].mac passedUpPk:vector(packetBytes) ETV
attr interpolationmode none
attr source packetSentToUpper
attr title "packets passed to higher layer, vector(packetBytes)"
203	834563 5232 555 126711 0.550414927009 17.164334597398 172 104 104 17888 1860352
vector 204 FanetGpsrSecure.host[17].wlan[0].mac rcvdPkFromLl:vector(packetBytes) ETV
attr interpolationmode none
attr source packetReceivedFromLower
attr title "packets received from lower layer, vector(packetBytes)"
204	839795 5594 559 126869 0.550415040022 17.218454883089 184 120 120 22080 2649600
vector 205 FanetGpsrSecure.host[17].wlan[0].mac passedUpPk:vector(packetBytes) ETV
attr interpolationmode none
attr source packetSentToUpper
attr title "packets passed to higher layer, vector(packetBytes)"
205	845389 5594 559 126869 0.550415040022 17.218454883089 184 104 104 19136 1990144
vector 206 FanetGpsrSecure.sybil[6].wlan[0].mac rcvdPkFromHl:vector(packetBytes) ETV
attr interpolationmode none
attr source packetReceivedFromUpper
attr title "packets received from higher layer, vector(packetBytes)"
206	850983 518 610 123037 0.5564183346 16.641138239064 17 104 104 1768 183872
vector 207 FanetGpsrSecure.sybil[6].wlan[0].mac.queue packetPushed:vector(packetBytes) ETV
attr interpolationmode none
attr title "packet pushed, vector(packetBytes)"
207	851501 518 610 123037 0.5564183346 16.641138239064 17 104 104 1768 183872
vector 208 FanetGpsrSecure.sybil[6].wlan[0].mac.queue queueLength:vector ETV
attr interpolationmode sample-hold
attr source "count(packetPushed) - count(packetPopped) - count(packetRemoved) - count(packetDropped)"
attr title "queue length, vector"
208	852019 968 610 123037 0.5564183346 16.641138239064 34 0 1 17 17
vector 209 FanetGpsrSecure.sybil[6].wlan[0].mac.queue packetPopped:vector(packetBytes) ETV
attr interpolationmode none
attr title "packet popped, vector(packetBytes)"
209	852987 518 610 123037 0.5564183346 16.641138239064 17 104 104 1768 183872
vector 210 FanetGpsrSecure.sybil[6].wlan[0].mac.queue queueingTime:vector ETV
attr interpolationmode none
attr source queueingTime(packetPopped)
attr title "queueing times, vector"
attr unit s
210	853505 484 610 123037 0.5564183346 16.641138239064 17 0 0 0 0
vector 211 FanetGpsrSecure.sybil[6].wlan[0].mac sentDownPk:vector(packetBytes) ETV
attr interpolationmode none
attr source packetSentToLower
attr title "packets sent to lower layer, vector(packetBytes)"
211	853989 518 610 123037 0.5564183346 16.641138239064 17 120 120 2040 244800
vector 212 FanetGpsrSecure.sybil[2].wlan[0].mac rcvdPkFromLl:vector(packetBytes) ETV
attr interpolationmode none
attr source packetReceivedFromLower
attr title "packets received from lower layer, vector(packetBytes)"
212	854507 3753 663 127666 0.556462793438 17.299913616173 123 120 120 14760 1771200
vector 213 FanetGpsrSecure.sybil[2].wlan[0].mac passedUpPk:vector(packetBytes) ETV
attr interpolationmode none
attr source packetSentToUpper
attr title "packets passed to higher layer, vector(packetBytes)"
213	858260 3722 663 127666 0.556462793438 17.299913616173 122 104 104 12688 1319552
vector 214 FanetGpsrSecure.host[1].wlan[0].mac passedUpPk:vector(packetBytes) ETV
attr interpolationmode none
attr source packetSentToUpper
attr title "packets passed to higher layer, vector(packetBytes)"
214	861982 5206 667 127662 0.556462797222 17.2999133715 171 104 104 17784 1849536
vector 215 FanetGpsrSecure.host[23].wlan[0].mac rcvdPkFromLl:vector(packetBytes) ETV
attr interpolationmode none
attr source packetReceivedFromLower
attr title "packets received from lower layer, vector(packetBytes)"
215	867188 2071 671 126111 0.556462886927 17.053302809468 68 120 120 8160 979200
vector 216 FanetGpsrSecure.host[23].wlan[0].mac passedUpPk:vector(packetBytes) ETV
attr interpolationmode none
attr source packetSentToUpper
attr title "packets passed to higher layer, vector(packetBytes)"
216	869259 2071 671 126111 0.556462886927 17.053302809468 68 104 104 7072 735488
vector 217 FanetGpsrSecure.host[14].wlan[0].mac rcvdPkFromLl:vector(packetBytes) ETV
attr interpolationmode none
attr source packetReceivedFromLower
attr title "packets received from lower layer, vector(packetBytes)"
217	871330 3832 675 127670 0.55646293153 17.299913714046 126 120 120 15120 1814400
vector 218 FanetGpsrSecure.host[14].wlan[0].mac passedUpPk:vector(packetBytes) ETV
attr interpolationmode none
attr source packetSentToUpper
attr title "packets passed to higher layer, vector(packetBytes)"
218	875162 3801 675 127670 0.55646293153 17.299913714046 125 104 104 13000 1352000
vector 219 FanetGpsrSecure.host[30].wlan[0].mac rcvdPkFromLl:vector(packetBytes) ETV
attr interpolationmode none
attr source packetReceivedFromLower
attr title "packets received from lower layer, vector(packetBytes)"
219	878963 3285 679 126367 0.556462998765 17.067520894794 108 120 120 12960 1555200
vector 220 FanetGpsrSecure.host[30].wlan[0].mac passedUpPk:vector(packetBytes) ETV
attr interpolationmode none
attr source packetSentToUpper
attr title "packets passed to higher layer, vector(packetBytes)"
220	882248 3285 679 126367 0.556462998765 17.067520894794 108 104 104 11232 1168128
vector 221 FanetGpsrSecure.sybil[5].wlan[0].mac rcvdPkFromHl:vector(packetBytes) ETV
attr interpolationmode none
attr source packetReceivedFromUpper
attr title "packets received from higher layer, vector(packetBytes)"
221	885533 486 734 123167 0.558029162465 16.643526121743 16 104 104 1664 173056
vector 222 FanetGpsrSecure.sybil[5].wlan[0].mac.queue packetPushed:vector(packetBytes) ETV
attr interpolationmode none
attr title "packet pushed, vector(packetBytes)"
222	886019 486 734 123167 0.558029162465 16.643526121743 16 104 104 1664 173056
vector 223 FanetGpsrSecure.sybil[5].wlan[0].mac.queue queueLength:vector ETV
attr interpolationmode sample-hold
attr source "count(packetPushed) - count(packetPopped) - count(packetRemoved) - count(packetDropped)"
attr title "queue length, vector"
223	886505 908 734 123167 0.558029162465 16.643526121743 32 0 1 16 16
vector 224 FanetGpsrSecure.sybil[5].wlan[0].mac.queue packetPopped:vector(packetBytes) ETV
attr interpolationmode none
attr title "packet popped, vector(packetBytes)"
224	887413 486 734 123167 0.558029162465 16.643526121743 16 104 104 1664 173056
vector 225 FanetGpsrSecure.sybil[5].wlan[0].mac.queue queueingTime:vector ETV
attr interpolationmode none
attr source queueingTime(packetPopped)
attr title "queueing times, vector"
attr unit s
225	887899 454 734 123167 0.558029162465 16.643526121743 16 0 0 0 0
vector 226 FanetGpsrSecure.sybil[5].wlan[0].mac sentDownPk:vector(packetBytes) ETV
attr interpolationmode none
attr source packetSentToLower
attr title "packets sent to lower layer, vector(packetBytes)"
226	888353 486 734 123167 0.558029162465 16.643526121743 16 120 120 1920 230400
vector 227 FanetGpsrSecure.host[28].wlan[0].mac rcvdPkFromLl:vector(packetBytes) ETV
attr interpolationmode none
attr source packetReceivedFromLower
attr title "packets received from lower layer, vector(packetBytes)"
227	888839 3229 787 127148 0.558073374285 17.251865589781 106 120 120 12720 1526400
vector 228 FanetGpsrSecure.host[28].wlan[0].mac passedUpPk:vector(packetBytes) ETV
attr interpolationmode none
attr source packetSentToUpper
attr title "packets passed to higher layer, vector(packetBytes)"
228	892068 3229 787 127148 0.558073374285 17.251865589781 106 104 104 11024 1146496
vector 229 FanetGpsrSecure.host[4].wlan[0].mac rcvdPkFromLl:vector(packetBytes) ETV
attr interpolationmode none
attr source packetReceivedFromLower
attr title "packets received from lower layer, vector(packetBytes)"
229	895297 4208 791 127128 0.558073695065 17.25186531514 138 120 120 16560 1987200
vector 230 FanetGpsrSecure.host[4].wlan[0].mac passedUpPk:vector(packetBytes) ETV
attr interpolationmode none
attr source packetSentToUpper
attr title "packets passed to higher layer, vector(packetBytes)"
230	899505 4208 791 127128 0.558073695065 17.25186531514 138 104 104 14352 1492608
vector 231 FanetGpsrSecure.host[9].wlan[0].mac rcvdPkFromLl:vector(packetBytes) ETV
attr interpolationmode none
attr source packetReceivedFromLower
attr title "packets received from lower layer, vector(packetBytes)"
231	903713 4220 795 126687 0.55807379696 17.164334113833 139 120 120 16680 2001600
vector 232 FanetGpsrSecure.host[9].wlan[0].mac passedUpPk:vector(packetBytes) ETV
attr interpolationmode none
attr source packetSentToUpper
attr title "packets passed to higher layer, vector(packetBytes)"
232	907933 4220 795 126687 0.55807379696 17.164334113833 139 104 104 14456 1503424
vector 233 FanetGpsrSecure.host[22].wlan[0].mac rcvdPkFromLl:vector(packetBytes) ETV
attr interpolationmode none
attr source packetReceivedFromLower
attr title "packets received from lower layer, vector(packetBytes)"
233	912153 6372 799 127678 0.55807395802 17.299913946524 209 120 120 25080 3009600
vector 234 FanetGpsrSecure.host[22].wlan[0].mac passedUpPk:vector(packetBytes) ETV
attr interpolationmode none
attr source packetSentToUpper
attr title "packets passed to higher layer, vector(packetBytes)"
234	918525 6372 799 127678 0.55807395802 17.299913946524 209 104 104 21736 2260544
vector 235 FanetGpsrSecure.host[36].wlan[0].mac rcvdPkFromLl:vector(packetBytes) ETV
attr interpolationmode none
attr source packetReceivedFromLower
attr title "packets received from lower layer, vector(packetBytes)"
235	924897 5877 803 127682 0.558074049996 17.299914077156 193 120 120 23160 2779200
vector 236 FanetGpsrSecure.host[36].wlan[0].mac passedUpPk:vector(packetBytes) ETV
attr interpolationmode none
attr source packetSentToUpper
attr title "packets passed to higher layer, vector(packetBytes)"
236	930774 5877 803 127682 0.558074049996 17.299914077156 193 104 104 20072 2087488
vector 237 FanetGpsrSecure.sybil[4].wlan[0].mac rcvdPkFromHl:vector(packetBytes) ETV
attr interpolationmode none
attr source packetReceivedFromUpper
attr title "packets received from higher layer, vector(packetBytes)"
237	936651 551 856 126945 0.585295567056 17.226523271296 18 104 104 1872 194688
vector 238 FanetGpsrSecure.sybil[4].wlan[0].mac.queue packetPushed:vector(packetBytes) ETV
attr interpolationmode none
attr title "packet pushed, vector(packetBytes)"
238	937202 551 856 126945 0.585295567056 17.226523271296 18 104 104 1872 194688
vector 239 FanetGpsrSecure.sybil[4].wlan[0].mac.queue queueLength:vector ETV
attr interpolationmode sample-hold
attr source "count(packetPushed) - count(packetPopped) - count(packetRemoved) - count(packetDropped)"
attr title "queue length, vector"
239	937753 1030 856 126945 0.585295567056 17.226523271296 36 0 1 18 18
vector 240 FanetGpsrSecure.sybil[4].wlan[0].mac.queue packetPopped:vector(packetBytes) ETV
attr interpolationmode none
attr title "packet popped, vector(packetBytes)"
240	938783 551 856 126945 0.585295567056 17.226523271296 18 104 104 1872 194688
vector 241 FanetGpsrSecure.sybil[4].wlan[0].mac.queue queueingTime:vector ETV
attr interpolationmode none
attr source queueingTime(packetPopped)
attr title "queueing times, vector"
attr unit s
241	939334 515 856 126945 0.585295567056 17.226523271296 18 0 0 0 0
vector 242 FanetGpsrSecure.sybil[4].wlan[0].mac sentDownPk:vector(packetBytes) ETV
attr interpolationmode none
attr source packetSentToLower
attr title "packets sent to lower layer, vector(packetBytes)"
242	939849 551 856 126945 0.585295567056 17.226523271296 18 120 120 2160 259200
vector 243 FanetGpsrSecure.host[39].wlan[0].mac passedUpPk:vector(packetBytes) ETV
attr interpolationmode none
attr source packetSentToUpper
attr title "packets passed to higher layer, vector(packetBytes)"
243	940400 2438 909 127546 0.585340304774 17.292798660588 80 104 104 8320 865280
vector 244 FanetGpsrSecure.host[9].wlan[0].mac rcvdPkFromHl:vector(packetBytes) ETV
attr interpolationmode none
attr source packetReceivedFromUpper
attr title "packets received from higher layer, vector(packetBytes)"
244	942838 579 1022 127071 0.664694156498 17.251820870442 19 104 104 1976 205504
vector 245 FanetGpsrSecure.host[9].wlan[0].mac.queue packetPushed:vector(packetBytes) ETV
attr interpolationmode none
attr title "packet pushed, vector(packetBytes)"
245	943417 579 1022 127071 0.664694156498 17.251820870442 19 104 104 1976 205504
vector 246 FanetGpsrSecure.host[9].wlan[0].mac.queue queueLength:vector ETV
attr interpolationmode sample-hold
attr source "count(packetPushed) - count(packetPopped) - count(packetRemoved) - count(packetDropped)"
attr title "queue length, vector"
246	943996 1082 1022 127071 0.664694156498 17.251820870442 38 0 1 19 19
vector 247 FanetGpsrSecure.host[9].wlan[0].mac.queue packetPopped:vector(packetBytes) ETV
attr interpolationmode none
attr title "packet popped, vector(packetBytes)"
247	945078 579 1022 127071 0.664694156498 17.251820870442 19 104 104 1976 205504
vector 248 FanetGpsrSecure.host[9].wlan[0].mac.queue queueingTime:vector ETV
attr interpolationmode none
attr source queueingTime(packetPopped)
attr title "queueing times, vector"
attr unit s
248	945657 541 1022 127071 0.664694156498 17.251820870442 19 0 0 0 0
vector 249 FanetGpsrSecure.host[9].wlan[0].mac sentDownPk:vector(packetBytes) ETV
attr interpolationmode none
attr source packetSentToLower
attr title "packets sent to lower layer, vector(packetBytes)"
249	946198 579 1022 127071 0.664694156498 17.251820870442 19 120 120 2280 273600
vector 250 FanetGpsrSecure.sybil[5].wlan[0].mac rcvdPkFromLl:vector(packetBytes) ETV
attr interpolationmode none
attr source packetReceivedFromLower
attr title "packets received from lower layer, vector(packetBytes)"
250	946777 3263 1083 127132 0.664738789839 17.251865447249 107 120 120 12840 1540800
vector 251 FanetGpsrSecure.sybil[5].wlan[0].mac passedUpPk:vector(packetBytes) ETV
attr interpolationmode none
attr source packetSentToUpper
attr title "packets passed to higher layer, vector(packetBytes)"
251	950040 3263 1083 127132 0.664738789839 17.251865447249 107 104 104 11128 1157312
vector 252 FanetGpsrSecure.host[25].wlan[0].mac rcvdPkFromLl:vector(packetBytes) ETV
attr interpolationmode none
attr source packetReceivedFromLower
attr title "packets received from lower layer, vector(packetBytes)"
252	953303 3475 1095 127140 0.664738881012 17.251865491535 114 120 120 13680 1641600
vector 253 FanetGpsrSecure.host[25].wlan[0].mac passedUpPk:vector(packetBytes) ETV
attr interpolationmode none
attr source packetSentToUpper
attr title "packets passed to higher layer, vector(packetBytes)"
253	956778 3475 1095 127140 0.664738881012 17.251865491535 114 104 104 11856 1233024
vector 254 FanetGpsrSecure.host[33].wlan[0].mac rcvdPkFromHl:vector(packetBytes) ETV
attr interpolationmode none
attr source packetReceivedFromUpper
attr title "packets received from higher layer, vector(packetBytes)"
254	960253 454 1150 118692 0.686193005415 16.124649031321 15 104 104 1560 162240
vector 255 FanetGpsrSecure.host[33].wlan[0].mac.queue packetPushed:vector(packetBytes) ETV
attr interpolationmode none
attr title "packet pushed, vector(packetBytes)"
255	960707 454 1150 118692 0.686193005415 16.124649031321 15 104 104 1560 162240
vector 256 FanetGpsrSecure.host[33].wlan[0].mac.queue queueLength:vector ETV
attr interpolationmode sample-hold
attr source "count(packetPushed) - count(packetPopped) - count(packetRemoved) - count(packetDropped)"
attr title "queue length, vector"
256	961161 848 1150 118692 0.686193005415 16.124649031321 30 0 1 15 15
vector 257 FanetGpsrSecure.host[33].wlan[0].mac.queue packetPopped:vector(packetBytes) ETV
attr interpolationmode none
attr title "packet popped, vector(packetBytes)"
257	962009 454 1150 118692 0.686193005415 16.124649031321 15 104 104 1560 162240
vector 258 FanetGpsrSecure.host[33].wlan[0].mac.queue queueingTime:vector ETV
attr interpolationmode none
attr source queueingTime(packetPopped)
attr title "queueing times, vector"
attr unit s
258	962463 424 1150 118692 0.686193005415 16.124649031321 15 0 0 0 0
vector 259 FanetGpsrSecure.host[33].wlan[0].mac sentDownPk:vector(packetBytes) ETV
attr interpolationmode none
attr source packetSentToLower
attr title "packets sent to lower layer, vector(packetBytes)"
259	962887 454 1150 118692 0.686193005415 16.124649031321 15 120 120 1800 216000
vector 260 FanetGpsrSecure.host[24].wlan[0].mac rcvdPkFromLl:vector(packetBytes) ETV
attr interpolationmode none
attr source packetReceivedFromLower
attr title "packets received from lower layer, vector(packetBytes)"
260	963341 7952 1203 127259 0.686237130565 17.252747865296 261 120 140 32040 3945600
vector 261 FanetGpsrSecure.host[24].wlan[0].mac passedUpPk:vector(packetBytes) ETV
attr interpolationmode none
attr source packetSentToUpper
attr title "packets passed to higher layer, vector(packetBytes)"
261	971293 6855 1203 127259 0.686237130565 17.252747865296 225 104 104 23400 2433600
vector 262 FanetGpsrSecure.host[26].wlan[0].mac rcvdPkFromLl:vector(packetBytes) ETV
attr interpolationmode none
attr source packetReceivedFromLower
attr title "packets received from lower layer, vector(packetBytes)"
262	978148 6226 1207 127267 0.686237409939 17.252747922112 204 120 140 24920 3052000
vector 263 FanetGpsrSecure.host[26].wlan[0].mac passedUpPk:vector(packetBytes) ETV
attr interpolationmode none
attr source packetSentToUpper
attr title "packets passed to higher layer, vector(packetBytes)"
263	984374 5547 1207 127267 0.686237409939 17.252747922112 182 104 104 18928 1968512
vector 264 FanetGpsrSecure.sybil[7].wlan[0].mac rcvdPkFromLl:vector(packetBytes) ETV
attr interpolationmode none
attr source packetReceivedFromLower
attr title "packets received from lower layer, vector(packetBytes)"
264	989921 6243 1211 127303 0.686237410297 17.252748315406 205 120 140 25040 3066400
vector 265 FanetGpsrSecure.sybil[7].wlan[0].mac passedUpPk:vector(packetBytes) ETV
attr interpolationmode none
attr source packetSentToUpper
attr title "packets passed to higher layer, vector(packetBytes)"
265	996164 5575 1211 127303 0.686237410297 17.252748315406 183 104 104 19032 1979328
vector 266 FanetGpsrSecure.host[20].wlan[0].mac rcvdPkFromLl:vector(packetBytes) ETV
attr interpolationmode none
attr source packetReceivedFromLower
attr title "packets received from lower layer, vector(packetBytes)"
266	1001739 6187 1215 127291 0.686237553509 17.252748194047 203 120 140 24840 3048000
vector 267 FanetGpsrSecure.host[20].wlan[0].mac passedUpPk:vector(packetBytes) ETV
attr interpolationmode none
attr source packetSentToUpper
attr title "packets passed to higher layer, vector(packetBytes)"
267	1007926 5819 1215 127291 0.686237553509 17.252748194047 191 104 124 20104 2120576
vector 268 FanetGpsrSecure.host[18].wlan[0].mac rcvdPkFromLl:vector(packetBytes) ETV
attr interpolationmode none
attr source packetReceivedFromLower
attr title "packets received from lower layer, vector(packetBytes)"
268	1013745 6536 1219 127255 0.686237603718 17.252747758483 215 120 140 26320 3231200
vector 269 FanetGpsrSecure.host[18].wlan[0].mac passedUpPk:vector(packetBytes) ETV
attr interpolationmode none
attr source packetSentToUpper
attr title "packets passed to higher layer, vector(packetBytes)"
269	1020281 5740 1219 127255 0.686237603718 17.252747758483 189 104 104 19656 2044224
vector 270 FanetGpsrSecure.host[5].wlan[0].mac rcvdPkFromLl:vector(packetBytes) ETV
attr interpolationmode none
attr source packetReceivedFromLower
attr title "packets received from lower layer, vector(packetBytes)"
270	1026021 7984 1223 127251 0.686237650299 17.252747598549 262 120 140 32160 3960000
vector 271 FanetGpsrSecure.host[5].wlan[0].mac passedUpPk:vector(packetBytes) ETV
attr interpolationmode none
attr source packetSentToUpper
attr title "packets passed to higher layer, vector(packetBytes)"
271	1034005 6878 1223 127251 0.686237650299 17.252747598549 226 104 104 23504 2444416
vector 272 FanetGpsrSecure.sybil[3].wlan[0].mac rcvdPkFromLl:vector(packetBytes) ETV
attr interpolationmode none
attr source packetReceivedFromLower
attr title "packets received from lower layer, vector(packetBytes)"
272	1040883 4385 1227 127299 0.686237668015 17.252748315233 144 120 120 17280 2073600
vector 273 FanetGpsrSecure.sybil[3].wlan[0].mac passedUpPk:vector(packetBytes) ETV
attr interpolationmode none
attr source packetSentToUpper
attr title "packets passed to higher layer, vector(packetBytes)"
273	1045268 4385 1227 127299 0.686237668015 17.252748315233 144 104 104 14976 1557504
vector 274 FanetGpsrSecure.sybil[8].wlan[0].mac rcvdPkFromLl:vector(packetBytes) ETV
attr interpolationmode none
attr source packetReceivedFromLower
attr title "packets received from lower layer, vector(packetBytes)"
274	1049653 7241 1235 127263 0.686237751649 17.252747912343 238 120 140 29040 3552000
vector 275 FanetGpsrSecure.sybil[8].wlan[0].mac passedUpPk:vector(packetBytes) ETV
attr interpolationmode none
attr source packetSentToUpper
attr title "packets passed to higher layer, vector(packetBytes)"
275	1056894 6503 1235 127263 0.686237751649 17.252747912343 214 104 104 22256 2314624
vector 276 FanetGpsrSecure.host[29].wlan[0].mac rcvdPkFromLl:vector(packetBytes) ETV
attr interpolationmode none
attr source packetReceivedFromLower
attr title "packets received from lower layer, vector(packetBytes)"
276	1063397 8079 1239 126515 0.686237784031 17.096507356869 265 120 140 32520 4003200
vector 277 FanetGpsrSecure.host[29].wlan[0].mac passedUpPk:vector(packetBytes) ETV
attr interpolationmode none
attr source packetSentToUpper
attr title "packets passed to higher layer, vector(packetBytes)"
277	1071476 6973 1239 126515 0.686237784031 17.096507356869 229 104 104 23816 2476864
vector 278 FanetGpsrSecure.host[31].wlan[0].mac rcvdPkFromHl:vector(packetBytes) ETV
attr interpolationmode none
attr source packetReceivedFromUpper
attr title "packets received from higher layer, vector(packetBytes)"
278	1078449 548 1337 120605 0.70984375407 16.405651434558 18 104 104 1872 194688
vector 279 FanetGpsrSecure.host[31].wlan[0].mac.queue packetPushed:vector(packetBytes) ETV
attr interpolationmode none
attr title "packet pushed, vector(packetBytes)"
279	1078997 548 1337 120605 0.70984375407 16.405651434558 18 104 104 1872 194688
vector 280 FanetGpsrSecure.host[31].wlan[0].mac.queue queueLength:vector ETV
attr interpolationmode sample-hold
attr source "count(packetPushed) - count(packetPopped) - count(packetRemoved) - count(packetDropped)"
attr title "queue length, vector"
280	1079545 1024 1337 120605 0.70984375407 16.405651434558 36 0 1 18 18
vector 281 FanetGpsrSecure.host[31].wlan[0].mac.queue packetPopped:vector(packetBytes) ETV
attr interpolationmode none
attr title "packet popped, vector(packetBytes)"
281	1080569 548 1337 120605 0.70984375407 16.405651434558 18 104 104 1872 194688
vector 282 FanetGpsrSecure.host[31].wlan[0].mac.queue queueingTime:vector ETV
attr interpolationmode none
attr source queueingTime(packetPopped)
attr title "queueing times, vector"
attr unit s
282	1081117 512 1337 120605 0.70984375407 16.405651434558 18 0 0 0 0
vector 283 FanetGpsrSecure.host[31].wlan[0].mac sentDownPk:vector(packetBytes) ETV
attr interpolationmode none
attr source packetSentToLower
attr title "packets sent to lower layer, vector(packetBytes)"
283	1081629 548 1337 120605 0.70984375407 16.405651434558 18 120 120 2160 259200
vector 284 FanetGpsrSecure.host[30].wlan[0].mac rcvdPkFromHl:vector(packetBytes) ETV
attr interpolationmode none
attr source packetReceivedFromUpper
attr title "packets received from higher layer, vector(packetBytes)"
284	1082177 581 1449 127609 0.712390501983 17.299869118259 19 104 104 1976 205504
vector 285 FanetGpsrSecure.host[30].wlan[0].mac.queue packetPushed:vector(packetBytes) ETV
attr interpolationmode none
attr title "packet pushed, vector(packetBytes)"
285	1082758 581 1449 127609 0.712390501983 17.299869118259 19 104 104 1976 205504
vector 286 FanetGpsrSecure.host[30].wlan[0].mac.queue queueLength:vector ETV
attr interpolationmode sample-hold
attr source "count(packetPushed) - count(packetPopped) - count(packetRemoved) - count(packetDropped)"
attr title "queue length, vector"
286	1083339 1086 1449 127609 0.712390501983 17.299869118259 38 0 1 19 19
vector 287 FanetGpsrSecure.host[30].wlan[0].mac.queue packetPopped:vector(packetBytes) ETV
attr interpolationmode none
attr title "packet popped, vector(packetBytes)"
287	1084425 581 1449 127609 0.712390501983 17.299869118259 19 104 104 1976 205504
vector 288 FanetGpsrSecure.host[30].wlan[0].mac.queue queueingTime:vector ETV
attr interpolationmode none
attr source queueingTime(packetPopped)
attr title "queueing times, vector"
attr unit s
288	1085006 543 1449 127609 0.712390501983 17.299869118259 19 0 0 0 0
vector 289 FanetGpsrSecure.host[30].wlan[0].mac sentDownPk:vector(packetBytes) ETV
attr interpolationmode none
attr source packetSentToLower
attr title "packets sent to lower layer, vector(packetBytes)"
289	1085549 581 1449 127609 0.712390501983 17.299869118259 19 120 120 2280 273600
[...]
attr interpolationmode none
attr title "packet pushed, vector(packetBytes)"
512	1331029 548 6514 126298 1.364281442482 17.067476066529 18 104 104 1872 194688
vector 513 FanetGpsrSecure.host[22].wlan[0].mac.queue queueLength:vector ETV
attr interpolationmode sample-hold
attr source "count(packetPushed) - count(packetPopped) - count(packetRemoved) - count(packetDropped)"
attr title "queue length, vector"
513	1331577 1024 6514 126298 1.364281442482 17.067476066529 36 0 1 18 18
vector 514 FanetGpsrSecure.host[22].wlan[0].mac.queue packetPopped:vector(packetBytes) ETV
attr interpolationmode none
attr title "packet popped, vector(packetBytes)"
514	1332601 548 6514 126298 1.364281442482 17.067476066529 18 104 104 1872 194688
vector 515 FanetGpsrSecure.host[22].wlan[0].mac.queue queueingTime:vector ETV
attr interpolationmode none
attr source queueingTime(packetPopped)
attr title "queueing times, vector"
attr unit s
515	1333149 512 6514 126298 1.364281442482 17.067476066529 18 0 0 0 0
vector 516 FanetGpsrSecure.host[22].wlan[0].mac sentDownPk:vector(packetBytes) ETV
attr interpolationmode none
attr source packetSentToLower
attr title "packets sent to lower layer, vector(packetBytes)"
516	1333661 548 6514 126298 1.364281442482 17.067476066529 18 120 120 2160 259200
vector 517 FanetGpsrSecure.host[3].wlan[0].mac rcvdPkFromHl:vector(packetBytes) ETV
attr interpolationmode none
attr source packetReceivedFromUpper
attr title "packets received from higher layer, vector(packetBytes)"
517	1334209 547 6835 124578 1.428081292659 16.89504557522 18 104 104 1872 194688
vector 518 FanetGpsrSecure.host[3].wlan[0].mac.queue packetPushed:vector(packetBytes) ETV
attr interpolationmode none
attr title "packet pushed, vector(packetBytes)"
518	1334756 547 6835 124578 1.428081292659 16.89504557522 18 104 104 1872 194688
vector 519 FanetGpsrSecure.host[3].wlan[0].mac.queue queueLength:vector ETV
attr interpolationmode sample-hold
attr source "count(packetPushed) - count(packetPopped) - count(packetRemoved) - count(packetDropped)"
attr title "queue length, vector"
519	1335303 1022 6835 124578 1.428081292659 16.89504557522 36 0 1 18 18
vector 520 FanetGpsrSecure.host[3].wlan[0].mac.queue packetPopped:vector(packetBytes) ETV
attr interpolationmode none
attr title "packet popped, vector(packetBytes)"
520	1336325 547 6835 124578 1.428081292659 16.89504557522 18 104 104 1872 194688
vector 521 FanetGpsrSecure.host[3].wlan[0].mac.queue queueingTime:vector ETV
attr interpolationmode none
attr source queueingTime(packetPopped)
attr title "queueing times, vector"
attr unit s
521	1336872 511 6835 124578 1.428081292659 16.89504557522 18 0 0 0 0
vector 522 FanetGpsrSecure.host[3].wlan[0].mac sentDownPk:vector(packetBytes) ETV
attr interpolationmode none
attr source packetSentToLower
attr title "packets sent to lower layer, vector(packetBytes)"
522	1337383 547 6835 124578 1.428081292659 16.89504557522 18 120 120 2160 259200
vector 523 FanetGpsrSecure.host[17].wlan[0].mac rcvdPkFromHl:vector(packetBytes) ETV
attr interpolationmode none
attr source packetReceivedFromUpper
attr title "packets received from higher layer, vector(packetBytes)"
523	1337930 517 6974 120983 1.434214001754 16.439812980127 17 104 104 1768 183872
vector 524 FanetGpsrSecure.host[17].wlan[0].mac.queue packetPushed:vector(packetBytes) ETV
attr interpolationmode none
attr title "packet pushed, vector(packetBytes)"
524	1338447 517 6974 120983 1.434214001754 16.439812980127 17 104 104 1768 183872
vector 525 FanetGpsrSecure.host[17].wlan[0].mac.queue queueLength:vector ETV
attr interpolationmode sample-hold
attr source "count(packetPushed) - count(packetPopped) - count(packetRemoved) - count(packetDropped)"
attr title "queue length, vector"
525	1338964 966 6974 120983 1.434214001754 16.439812980127 34 0 1 17 17
vector 526 FanetGpsrSecure.host[17].wlan[0].mac.queue packetPopped:vector(packetBytes) ETV
attr interpolationmode none
attr title "packet popped, vector(packetBytes)"
526	1339930 517 6974 120983 1.434214001754 16.439812980127 17 104 104 1768 183872
vector 527 FanetGpsrSecure.host[17].wlan[0].mac.queue queueingTime:vector ETV
attr interpolationmode none
attr source queueingTime(packetPopped)
attr title "queueing times, vector"
attr unit s
527	1340447 483 6974 120983 1.434214001754 16.439812980127 17 0 0 0 0
vector 528 FanetGpsrSecure.host[17].wlan[0].mac sentDownPk:vector(packetBytes) ETV
attr interpolationmode none
attr source packetSentToLower
attr title "packets sent to lower layer, vector(packetBytes)"
528	1340930 517 6974 120983 1.434214001754 16.439812980127 17 120 120 2040 244800
vector 529 FanetGpsrSecure.host[2].wlan[0].mac rcvdPkFromHl:vector(packetBytes) ETV
attr interpolationmode none
attr source packetReceivedFromUpper
attr title "packets received from higher layer, vector(packetBytes)"
529	1341447 425 7229 122489 1.444119750988 16.581970305879 14 104 104 1456 151424
vector 530 FanetGpsrSecure.host[2].wlan[0].mac.queue packetPushed:vector(packetBytes) ETV
attr interpolationmode none
attr title "packet pushed, vector(packetBytes)"
530	1341872 425 7229 122489 1.444119750988 16.581970305879 14 104 104 1456 151424
vector 531 FanetGpsrSecure.host[2].wlan[0].mac.queue queueLength:vector ETV
attr interpolationmode sample-hold
attr source "count(packetPushed) - count(packetPopped) - count(packetRemoved) - count(packetDropped)"
attr title "queue length, vector"
531	1342297 794 7229 122489 1.444119750988 16.581970305879 28 0 1 14 14
vector 532 FanetGpsrSecure.host[2].wlan[0].mac.queue packetPopped:vector(packetBytes) ETV
attr interpolationmode none
attr title "packet popped, vector(packetBytes)"
532	1343091 425 7229 122489 1.444119750988 16.581970305879 14 104 104 1456 151424
vector 533 FanetGpsrSecure.host[2].wlan[0].mac.queue queueingTime:vector ETV
attr interpolationmode none
attr source queueingTime(packetPopped)
attr title "queueing times, vector"
attr unit s
533	1343516 397 7229 122489 1.444119750988 16.581970305879 14 0 0 0 0
vector 534 FanetGpsrSecure.host[2].wlan[0].mac sentDownPk:vector(packetBytes) ETV
attr interpolationmode none
attr source packetSentToLower
attr title "packets sent to lower layer, vector(packetBytes)"
534	1343913 425 7229 122489 1.444119750988 16.581970305879 14 120 120 1680 201600
vector 535 FanetGpsrSecure.host[35].wlan[0].mac rcvdPkFromHl:vector(packetBytes) ETV
attr interpolationmode none
attr source packetReceivedFromUpper
attr title "packets received from higher layer, vector(packetBytes)"
535	1344338 456 7336 125622 1.444372388534 17.015372591559 15 104 104 1560 162240
vector 536 FanetGpsrSecure.host[35].wlan[0].mac.queue packetPushed:vector(packetBytes) ETV
attr interpolationmode none
attr title "packet pushed, vector(packetBytes)"
536	1344794 456 7336 125622 1.444372388534 17.015372591559 15 104 104 1560 162240
vector 537 FanetGpsrSecure.host[35].wlan[0].mac.queue queueLength:vector ETV
attr interpolationmode sample-hold
attr source "count(packetPushed) - count(packetPopped) - count(packetRemoved) - count(packetDropped)"
attr title "queue length, vector"
537	1345250 852 7336 125622 1.444372388534 17.015372591559 30 0 1 15 15
vector 538 FanetGpsrSecure.host[35].wlan[0].mac.queue packetPopped:vector(packetBytes) ETV
attr interpolationmode none
attr title "packet popped, vector(packetBytes)"
538	1346102 456 7336 125622 1.444372388534 17.015372591559 15 104 104 1560 162240
vector 539 FanetGpsrSecure.host[35].wlan[0].mac.queue queueingTime:vector ETV
attr interpolationmode none
attr source queueingTime(packetPopped)
attr title "queueing times, vector"
attr unit s
539	1346558 426 7336 125622 1.444372388534 17.015372591559 15 0 0 0 0
vector 540 FanetGpsrSecure.host[35].wlan[0].mac sentDownPk:vector(packetBytes) ETV
attr interpolationmode none
attr source packetSentToLower
attr title "packets sent to lower layer, vector(packetBytes)"
540	1346984 456 7336 125622 1.444372388534 17.015372591559 15 120 120 1800 216000
vector 541 FanetGpsrSecure.host[26].wlan[0].mac rcvdPkFromHl:vector(packetBytes) ETV
attr interpolationmode none
attr source packetReceivedFromUpper
attr title "packets received from higher layer, vector(packetBytes)"
541	1347440 457 7487 122900 1.464489765698 16.626186419046 15 104 104 1560 162240
vector 542 FanetGpsrSecure.host[26].wlan[0].mac.queue packetPushed:vector(packetBytes) ETV
attr interpolationmode none
attr title "packet pushed, vector(packetBytes)"
542	1347897 457 7487 122900 1.464489765698 16.626186419046 15 104 104 1560 162240
vector 543 FanetGpsrSecure.host[26].wlan[0].mac.queue queueLength:vector ETV
attr interpolationmode sample-hold
attr source "count(packetPushed) - count(packetPopped) - count(packetRemoved) - count(packetDropped)"
attr title "queue length, vector"
543	1348354 854 7487 122900 1.464489765698 16.626186419046 30 0 1 15 15
vector 544 FanetGpsrSecure.host[26].wlan[0].mac.queue packetPopped:vector(packetBytes) ETV
attr interpolationmode none
attr title "packet popped, vector(packetBytes)"
544	1349208 457 7487 122900 1.464489765698 16.626186419046 15 104 104 1560 162240
vector 545 FanetGpsrSecure.host[26].wlan[0].mac.queue queueingTime:vector ETV
attr interpolationmode none
attr source queueingTime(packetPopped)
attr title "queueing times, vector"
attr unit s
545	1349665 427 7487 122900 1.464489765698 16.626186419046 15 0 0 0 0
vector 546 FanetGpsrSecure.host[26].wlan[0].mac sentDownPk:vector(packetBytes) ETV
attr interpolationmode none
attr source packetSentToLower
attr title "packets sent to lower layer, vector(packetBytes)"
546	1350092 457 7487 122900 1.464489765698 16.626186419046 15 120 120 1800 216000
vector 547 FanetGpsrSecure.sybil[0].wlan[0].mac rcvdPkFromHl:vector(packetBytes) ETV
attr interpolationmode none
attr source packetReceivedFromUpper
attr title "packets received from higher layer, vector(packetBytes)"
547	1350549 458 7623 125176 1.470236684894 16.948542419123 15 104 104 1560 162240
vector 548 FanetGpsrSecure.sybil[0].wlan[0].mac.queue packetPushed:vector(packetBytes) ETV
attr interpolationmode none
attr title "packet pushed, vector(packetBytes)"
548	1351007 458 7623 125176 1.470236684894 16.948542419123 15 104 104 1560 162240
vector 549 FanetGpsrSecure.sybil[0].wlan[0].mac.queue queueLength:vector ETV
attr interpolationmode sample-hold
attr source "count(packetPushed) - count(packetPopped) - count(packetRemoved) - count(packetDropped)"
attr title "queue length, vector"
549	1351465 856 7623 125176 1.470236684894 16.948542419123 30 0 1 15 15
vector 550 FanetGpsrSecure.sybil[0].wlan[0].mac.queue packetPopped:vector(packetBytes) ETV
attr interpolationmode none
attr title "packet popped, vector(packetBytes)"
550	1352321 458 7623 125176 1.470236684894 16.948542419123 15 104 104 1560 162240
vector 551 FanetGpsrSecure.sybil[0].wlan[0].mac.queue queueingTime:vector ETV
attr interpolationmode none
attr source queueingTime(packetPopped)
attr title "queueing times, vector"
attr unit s
551	1352779 428 7623 125176 1.470236684894 16.948542419123 15 0 0 0 0
vector 552 FanetGpsrSecure.sybil[0].wlan[0].mac sentDownPk:vector(packetBytes) ETV
attr interpolationmode none
attr source packetSentToLower
attr title "packets sent to lower layer, vector(packetBytes)"
552	1353207 458 7623 125176 1.470236684894 16.948542419123 15 120 120 1800 216000
vector 553 FanetGpsrSecure.host[16].wlan[0].mac rcvdPkFromHl:vector(packetBytes) ETV
attr interpolationmode none
attr source packetReceivedFromUpper
attr title "packets received from higher layer, vector(packetBytes)"
553	1353665 488 7758 125446 1.492396395653 16.962114747612 16 104 104 1664 173056
vector 554 FanetGpsrSecure.host[16].wlan[0].mac.queue packetPushed:vector(packetBytes) ETV
attr interpolationmode none
attr title "packet pushed, vector(packetBytes)"
554	1354153 488 7758 125446 1.492396395653 16.962114747612 16 104 104 1664 173056
vector 555 FanetGpsrSecure.host[16].wlan[0].mac.queue queueLength:vector ETV
attr interpolationmode sample-hold
attr source "count(packetPushed) - count(packetPopped) - count(packetRemoved) - count(packetDropped)"
attr title "queue length, vector"
555	1354641 912 7758 125446 1.492396395653 16.962114747612 32 0 1 16 16
vector 556 FanetGpsrSecure.host[16].wlan[0].mac.queue packetPopped:vector(packetBytes) ETV
attr interpolationmode none
attr title "packet popped, vector(packetBytes)"
556	1355553 488 7758 125446 1.492396395653 16.962114747612 16 104 104 1664 173056
vector 557 FanetGpsrSecure.host[16].wlan[0].mac.queue queueingTime:vector ETV
attr interpolationmode none
attr source queueingTime(packetPopped)
attr title "queueing times, vector"
attr unit s
557	1356041 456 7758 125446 1.492396395653 16.962114747612 16 0 0 0 0
vector 558 FanetGpsrSecure.host[16].wlan[0].mac sentDownPk:vector(packetBytes) ETV
attr interpolationmode none
attr source packetSentToLower
attr title "packets sent to lower layer, vector(packetBytes)"
558	1356497 488 7758 125446 1.492396395653 16.962114747612 16 120 120 1920 230400
vector 559 FanetGpsrSecure.host[7].wlan[0].mac packetDropNotAddressedToUs:vector(packetBytes) ETV
attr interpolationmode none
attr source packetDropReasonIsNotAddressedToUs(packetDropped)
attr title "packet drop: not addressed to us, vector(packetBytes)"
559	1356985 1192 7996 121936 1.548864813144 16.549121827203 39 140 140 5460 764400
vector 560 FanetGpsrSecure.sybil[6].wlan[0].mac packetDropNotAddressedToUs:vector(packetBytes) ETV
attr interpolationmode none
attr source packetDropReasonIsNotAddressedToUs(packetDropped)
attr title "packet drop: not addressed to us, vector(packetBytes)"
560	1358177 769 8009 121942 1.548865153103 16.549122152624 25 140 140 3500 490000
vector 561 FanetGpsrSecure.host[6].wlan[0].mac packetDropNotAddressedToUs:vector(packetBytes) ETV
attr interpolationmode none
attr source packetDropReasonIsNotAddressedToUs(packetDropped)
attr title "packet drop: not addressed to us, vector(packetBytes)"
561	1358946 797 8108 121814 1.548916303814 16.549070009403 26 140 140 3640 509600
vector 562 FanetGpsrSecure.sybil[1].wlan[0].mac packetDropNotAddressedToUs:vector(packetBytes) ETV
attr interpolationmode none
attr source packetDropReasonIsNotAddressedToUs(packetDropped)
attr title "packet drop: not addressed to us, vector(packetBytes)"
562	1359743 1416 8110 121816 1.548916404296 16.549070130947 46 140 140 6440 901600
vector 563 FanetGpsrSecure.host[29].wlan[0].mac packetDropNotAddressedToUs:vector(packetBytes) ETV
attr interpolationmode none
attr source packetDropReasonIsNotAddressedToUs(packetDropped)
attr title "packet drop: not addressed to us, vector(packetBytes)"
563	1361159 1106 8112 121822 1.548916437015 16.549070410034 36 140 140 5040 705600
vector 564 FanetGpsrSecure.host[16].wlan[0].mac packetDropNotAddressedToUs:vector(packetBytes) ETV
attr interpolationmode none
attr source packetDropReasonIsNotAddressedToUs(packetDropped)
attr title "packet drop: not addressed to us, vector(packetBytes)"
564	1362265 428 8114 121836 1.548916558429 16.549070656498 14 140 140 1960 274400
vector 565 FanetGpsrSecure.sybil[8].wlan[0].mac packetDropNotAddressedToUs:vector(packetBytes) ETV
attr interpolationmode none
attr source packetDropReasonIsNotAddressedToUs(packetDropped)
attr title "packet drop: not addressed to us, vector(packetBytes)"
565	1362693 738 8118 121828 1.548916576043 16.549070505576 24 140 140 3360 470400
vector 566 FanetGpsrSecure.host[0].wlan[0].mac packetDropNotAddressedToUs:vector(packetBytes) ETV
attr interpolationmode none
attr source packetDropReasonIsNotAddressedToUs(packetDropped)
attr title "packet drop: not addressed to us, vector(packetBytes)"
566	1363431 369 8124 121476 1.548916719415 16.548916199812 12 140 140 1680 235200
vector 567 FanetGpsrSecure.host[18].wlan[0].mac packetDropNotAddressedToUs:vector(packetBytes) ETV
attr interpolationmode none
attr source packetDropReasonIsNotAddressedToUs(packetDropped)
attr title "packet drop: not addressed to us, vector(packetBytes)"
567	1363800 796 8126 121720 1.548916721557 16.549019062444 26 140 140 3640 509600
vector 568 FanetGpsrSecure.host[5].wlan[0].mac packetDropNotAddressedToUs:vector(packetBytes) ETV
attr interpolationmode none
attr source packetDropReasonIsNotAddressedToUs(packetDropped)
attr title "packet drop: not addressed to us, vector(packetBytes)"
568	1364596 1106 8135 121834 1.548916747608 16.549070560709 36 140 140 5040 705600
vector 569 FanetGpsrSecure.host[24].wlan[0].mac packetDropNotAddressedToUs:vector(packetBytes) ETV
attr interpolationmode none
attr source packetDropReasonIsNotAddressedToUs(packetDropped)
attr title "packet drop: not addressed to us, vector(packetBytes)"
569	1365702 1097 8137 121826 1.548916751457 16.549070492276 36 140 140 5040 705600
vector 570 FanetGpsrSecure.host[33].wlan[0].mac packetDropNotAddressedToUs:vector(packetBytes) ETV
attr interpolationmode none
attr source packetDropReasonIsNotAddressedToUs(packetDropped)
attr title "packet drop: not addressed to us, vector(packetBytes)"
570	1366799 679 8227 121701 1.548967894901 16.549018470272 22 140 140 3080 431200
vector 571 FanetGpsrSecure.sybil[7].wlan[0].mac packetDropNotAddressedToUs:vector(packetBytes) ETV
attr interpolationmode none
attr source packetDropReasonIsNotAddressedToUs(packetDropped)
attr title "packet drop: not addressed to us, vector(packetBytes)"
571	1367478 668 8231 121707 1.548968078885 16.549018777402 22 140 140 3080 431200
vector 572 FanetGpsrSecure.host[31].wlan[0].mac packetDropNotAddressedToUs:vector(packetBytes) ETV
attr interpolationmode none
attr source packetDropReasonIsNotAddressedToUs(packetDropped)
attr title "packet drop: not addressed to us, vector(packetBytes)"
572	1368146 369 8233 121724 1.548968160145 16.549019138719 12 140 140 1680 235200
vector 573 FanetGpsrSecure.host[26].wlan[0].mac packetDropNotAddressedToUs:vector(packetBytes) ETV
attr interpolationmode none
attr source packetDropReasonIsNotAddressedToUs(packetDropped)
attr title "packet drop: not addressed to us, vector(packetBytes)"
573	1368515 679 8237 121713 1.548968287274 16.549019010832 22 140 140 3080 431200
vector 574 FanetGpsrSecure.host[0].app[0] pingRxSeq:vector ETV
attr interpolationmode none
attr title "ping rx seq, vector"
574	1369194 324 8358 121933 1.549019952537 16.549121632772 11 1 16 111 1361
vector 575 FanetGpsrSecure.host[0].app[0] rtt:vector ETV
attr interpolationmode none
attr title "ping round-trip time, vector"
attr unit s
575	1369518 460 8358 121933 1.549019952537 16.549121632772 11 0.000206450233 0.000308130468 0.003186086257 9.3974764630917e-007
vector 576 FanetGpsrSecure.host[0].app[0] numLost:vector ETV
attr interpolationmode none
attr title "pings lost, vector"
576	1369978 55 8358 59859 1.549019952537 8.549121632772 2 1 6 7 37
vector 577 FanetGpsrSecure.host[20].wlan[0].mac packetDropNotAddressedToUs:vector(packetBytes) ETV
attr interpolationmode none
attr source packetDropReasonIsNotAddressedToUs(packetDropped)
attr title "packet drop: not addressed to us, vector(packetBytes)"
577	1370033 368 8363 121832 1.549019960536 16.549070558124 12 140 140 1680 235200
vector 578 FanetGpsrSecure.sybil[2].wlan[0].mac packetDropIncorrectlyReceived:vector(packetBytes) ETV
attr interpolationmode none
attr source packetDropReasonIsIncorrectlyReceived(packetDropped)
attr title "packet drop: incorrectly received, vector(packetBytes)"
578	1370401 31 97853 97853 13.470393467193 13.470393467193 1 120 120 120 14400
vector 579 FanetGpsrSecure.host[14].wlan[0].mac packetDropIncorrectlyReceived:vector(packetBytes) ETV
attr interpolationmode none
attr source packetDropReasonIsIncorrectlyReceived(packetDropped)
attr title "packet drop: incorrectly received, vector(packetBytes)"
579	1370432 33 97859 97859 13.470393571706 13.470393571706 1 120 120 120 14400
