file 17802753 1631875242                                        
version 2
run _3D_Turtle_Normal-0-20210917-12:39:44-9852
attr configname _3D_Turtle_Normal
attr datetime 20210917-12:39:44
attr experiment _3D_Turtle_Normal
attr inifile omnetpp.ini
attr iterationvars ""
attr iterationvarsf ""
attr measurement ""
attr network FanetGpsrNormal
attr processid 9852
attr repetition 0
attr replication #0
attr resultdir results
attr runnumber 0
attr seedset 0
param *.host[*].osgModel "\"3d/drone.ive.100.scale.0,0,90.rot\""
param *.sybil[*].osgModel "\"3d/glider.osgb.100.scale.0,0,90.rot\""
param *.grayhole[*].osgModel "\"3d/glider.osgb.100.scale.0,0,90.rot\""
param *.host*.mobility.typename "\"TurtleMobility\""
param *.host*.mobility.turtleScript "xmldoc(\"config.xml\")"
param *.sybil*.mobility.typename "\"TurtleMobility\""
param *.sybil*.mobility.turtleScript "xmldoc(\"config.xml\")"
param *.grayhole*.mobility.typename "\"TurtleMobility\""
param *.grayhole*.mobility.turtleScript "xmldoc(\"config.xml\")"
param *.host[0].numApps 1
param *.host[0].app[0].typename "\"UdpBasicApp\""
param *.host[0].app[0].destAddresses "\"host[20]\""
param *.host[0].app[0].destPort 5000
param *.host[0].app[0].messageLength 1000B
param *.host[0].app[0].sendInterval exponential(1s)
param *.host[0].app[0].packetName "\"UDPData\""
param *.host[20].numApps 1
param *.host[20].app[0].typename "\"UdpSink\""
param *.host[20].app[0].localPort 5000
param **.wlan[*].bitrate 24Mbps
param *.configurator.addStaticRoutes false
param **.netmaskRoutes "\"\""
param **.arp.typename "\"GlobalArp\""
param **.planarizationMode "\"RNG\""
param **.beaconInterval 1s
param *.host*.wlan[0].typename "\"AckingWirelessInterface\""
param *.host*.wlan[0].radio.transmitter.communicationRange 300m
param *.sybil*.wlan[0].typename "\"AckingWirelessInterface\""
param *.sybil*.wlan[0].radio.transmitter.communicationRange 300m
param *.grayhole*.wlan[0].typename "\"AckingWirelessInterface\""
param *.grayhole*.wlan[0].radio.transmitter.communicationRange 300m
param *.visualizer.osgVisualizer.typename "\"IntegratedOsgVisualizer\""
param *.visualizer.osgVisualizer.sceneVisualizer.typename "\"SceneOsgEarthVisualizer\""
param *.visualizer.osgVisualizer.sceneVisualizer.mapFile "\"unical.earth\""
param *.coordinateSystem.sceneLongitude 16.2215deg
param *.coordinateSystem.sceneLatitude 39.3701deg
param *.visualizer.osgVisualizer.sceneVisualizer.clearColor "\"skyblue\""
param *.visualizer.osgVisualizer.sceneVisualizer.sceneShading false
param *.visualizer.osgVisualizer.sceneVisualizer.sceneColor "\"#000000\""
param *.visualizer.osgVisualizer.sceneVisualizer.sceneOpacity 0.0
param *.visualizer.osgVisualizer.sceneVisualizer.sceneImageSize 4000m
param *.visualizer.osgVisualizer.sceneVisualizer.axisLength 2000m
param *.visualizer.osgVisualizer.sceneVisualizer.sceneMinX 0m
param *.visualizer.osgVisualizer.sceneVisualizer.sceneMinY 0m
param *.visualizer.osgVisualizer.sceneVisualizer.sceneMinZ 0m
param *.visualizer.osgVisualizer.sceneVisualizer.sceneMaxX 1700m
param *.visualizer.osgVisualizer.sceneVisualizer.sceneMaxY 300m
param *.visualizer.osgVisualizer.sceneVisualizer.sceneMaxZ 20m
param *.coordinateSystem.sceneAltitude 20m
param *.coordinateSystem.sceneHeading 169deg
param *.visualizer.osgVisualizer.networkNodeVisualizer.displayModuleName false
param *.visualizer.*.mobilityVisualizer.displayMobility true
param *.visualizer.*.mobilityVisualizer.displayPositions true
param *.visualizer.*.mobilityVisualizer.displayOrientations true
param *.visualizer.*.mobilityVisualizer.displayVelocities true
param *.visualizer.*.mobilityVisualizer.displayMovementTrails true
param *.visualizer.*.mobilityVisualizer.animationSpeed 1
param **.constraintAreaMinX 0m
param **.constraintAreaMinY 0m
param **.constraintAreaMinZ 200m
param **.constraintAreaMaxX 1500m
param **.constraintAreaMaxY 800m
param **.constraintAreaMaxZ 400m

vector 0 FanetGpsrNormal.host[0].wlan[0].radio radioMode:vector ETV
attr interpolationmode sample-hold
attr source radioModeChanged
attr title "Radio mode, vector"
vector 1 FanetGpsrNormal.host[1].wlan[0].radio radioMode:vector ETV
attr interpolationmode sample-hold
attr source radioModeChanged
attr title "Radio mode, vector"
vector 2 FanetGpsrNormal.host[2].wlan[0].radio radioMode:vector ETV
attr interpolationmode sample-hold
attr source radioModeChanged
attr title "Radio mode, vector"
vector 3 FanetGpsrNormal.host[3].wlan[0].radio radioMode:vector ETV
attr interpolationmode sample-hold
attr source radioModeChanged
attr title "Radio mode, vector"
vector 4 FanetGpsrNormal.host[4].wlan[0].radio radioMode:vector ETV
attr interpolationmode sample-hold
attr source radioModeChanged
attr title "Radio mode, vector"
vector 5 FanetGpsrNormal.host[5].wlan[0].radio radioMode:vector ETV
attr interpolationmode sample-hold
attr source radioModeChanged
attr title "Radio mode, vector"
vector 6 FanetGpsrNormal.host[6].wlan[0].radio radioMode:vector ETV
attr interpolationmode sample-hold
attr source radioModeChanged
attr title "Radio mode, vector"
vector 7 FanetGpsrNormal.host[7].wlan[0].radio radioMode:vector ETV
attr interpolationmode sample-hold
attr source radioModeChanged
attr title "Radio mode, vector"
vector 8 FanetGpsrNormal.host[8].wlan[0].radio radioMode:vector ETV
attr interpolationmode sample-hold
attr source radioModeChanged
attr title "Radio mode, vector"
vector 9 FanetGpsrNormal.host[9].wlan[0].radio radioMode:vector ETV
attr interpolationmode sample-hold
attr source radioModeChanged
attr title "Radio mode, vector"
vector 10 FanetGpsrNormal.host[10].wlan[0].radio radioMode:vector ETV
attr interpolationmode sample-hold
attr source radioModeChanged
attr title "Radio mode, vector"
vector 11 FanetGpsrNormal.host[11].wlan[0].radio radioMode:vector ETV
attr interpolationmode sample-hold
attr source radioModeChanged
attr title "Radio mode, vector"
vector 12 FanetGpsrNormal.host[12].wlan[0].radio radioMode:vector ETV
attr interpolationmode sample-hold
attr source radioModeChanged
attr title "Radio mode, vector"
vector 13 FanetGpsrNormal.host[13].wlan[0].radio radioMode:vector ETV
attr interpolationmode sample-hold
attr source radioModeChanged
attr title "Radio mode, vector"
vector 14 FanetGpsrNormal.host[14].wlan[0].radio radioMode:vector ETV
attr interpolationmode sample-hold
attr source radioModeChanged
attr title "Radio mode, vector"
vector 15 FanetGpsrNormal.host[15].wlan[0].radio radioMode:vector ETV
attr interpolationmode sample-hold
attr source radioModeChanged
attr title "Radio mode, vector"
vector 16 FanetGpsrNormal.host[16].wlan[0].radio radioMode:vector ETV
attr interpolationmode sample-hold
attr source radioModeChanged
attr title "Radio mode, vector"
vector 17 FanetGpsrNormal.host[17].wlan[0].radio radioMode:vector ETV
attr interpolationmode sample-hold
attr source radioModeChanged
attr title "Radio mode, vector"
vector 18 FanetGpsrNormal.host[18].wlan[0].radio radioMode:vector ETV
attr interpolationmode sample-hold
attr source radioModeChanged
attr title "Radio mode, vector"
vector 19 FanetGpsrNormal.host[19].wlan[0].radio radioMode:vector ETV
attr interpolationmode sample-hold
attr source radioModeChanged
attr title "Radio mode, vector"
vector 20 FanetGpsrNormal.host[20].wlan[0].radio radioMode:vector ETV
attr interpolationmode sample-hold
attr source radioModeChanged
attr title "Radio mode, vector"
vector 21 FanetGpsrNormal.grayhole[0].wlan[0].radio radioMode:vector ETV
attr interpolationmode sample-hold
attr source radioModeChanged
attr title "Radio mode, vector"
vector 22 FanetGpsrNormal.grayhole[1].wlan[0].radio radioMode:vector ETV
attr interpolationmode sample-hold
attr source radioModeChanged
attr title "Radio mode, vector"
vector 23 FanetGpsrNormal.grayhole[2].wlan[0].radio radioMode:vector ETV
attr interpolationmode sample-hold
attr source radioModeChanged
attr title "Radio mode, vector"
vector 24 FanetGpsrNormal.grayhole[3].wlan[0].radio radioMode:vector ETV
attr interpolationmode sample-hold
attr source radioModeChanged
attr title "Radio mode, vector"
vector 25 FanetGpsrNormal.grayhole[4].wlan[0].radio radioMode:vector ETV
attr interpolationmode sample-hold
attr source radioModeChanged
attr title "Radio mode, vector"
vector 26 FanetGpsrNormal.grayhole[5].wlan[0].radio radioMode:vector ETV
attr interpolationmode sample-hold
attr source radioModeChanged
attr title "Radio mode, vector"
vector 27 FanetGpsrNormal.grayhole[6].wlan[0].radio radioMode:vector ETV
attr interpolationmode sample-hold
attr source radioModeChanged
attr title "Radio mode, vector"
vector 28 FanetGpsrNormal.grayhole[7].wlan[0].radio radioMode:vector ETV
attr interpolationmode sample-hold
attr source radioModeChanged
attr title "Radio mode, vector"
vector 29 FanetGpsrNormal.grayhole[8].wlan[0].radio radioMode:vector ETV
attr interpolationmode sample-hold
attr source radioModeChanged
attr title "Radio mode, vector"
vector 30 FanetGpsrNormal.grayhole[9].wlan[0].radio radioMode:vector ETV
attr interpolationmode sample-hold
attr source radioModeChanged
attr title "Radio mode, vector"
vector 31 FanetGpsrNormal.grayhole[10].wlan[0].radio radioMode:vector ETV
attr interpolationmode sample-hold
attr source radioModeChanged
attr title "Radio mode, vector"
vector 32 FanetGpsrNormal.grayhole[11].wlan[0].radio radioMode:vector ETV
attr interpolationmode sample-hold
attr source radioModeChanged
attr title "Radio mode, vector"
vector 33 FanetGpsrNormal.grayhole[12].wlan[0].radio radioMode:vector ETV
attr interpolationmode sample-hold
attr source radioModeChanged
attr title "Radio mode, vector"
vector 34 FanetGpsrNormal.grayhole[13].wlan[0].radio radioMode:vector ETV
attr interpolationmode sample-hold
attr source radioModeChanged
attr title "Radio mode, vector"
vector 35 FanetGpsrNormal.grayhole[14].wlan[0].radio radioMode:vector ETV
attr interpolationmode sample-hold
attr source radioModeChanged
attr title "Radio mode, vector"
vector 36 FanetGpsrNormal.grayhole[15].wlan[0].radio radioMode:vector ETV
attr interpolationmode sample-hold
attr source radioModeChanged
attr title "Radio mode, vector"
vector 37 FanetGpsrNormal.grayhole[16].wlan[0].radio radioMode:vector ETV
attr interpolationmode sample-hold
attr source radioModeChanged
attr title "Radio mode, vector"
vector 38 FanetGpsrNormal.grayhole[17].wlan[0].radio radioMode:vector ETV
attr interpolationmode sample-hold
attr source radioModeChanged
attr title "Radio mode, vector"
vector 39 FanetGpsrNormal.grayhole[18].wlan[0].radio radioMode:vector ETV
attr interpolationmode sample-hold
attr source radioModeChanged
attr title "Radio mode, vector"
vector 40 FanetGpsrNormal.grayhole[19].wlan[0].radio radioMode:vector ETV
attr interpolationmode sample-hold
attr source radioModeChanged
attr title "Radio mode, vector"
vector 41 FanetGpsrNormal.grayhole[20].wlan[0].radio radioMode:vector ETV
attr interpolationmode sample-hold
attr source radioModeChanged
attr title "Radio mode, vector"
vector 42 FanetGpsrNormal.grayhole[21].wlan[0].radio radioMode:vector ETV
attr interpolationmode sample-hold
attr source radioModeChanged
attr title "Radio mode, vector"
vector 43 FanetGpsrNormal.grayhole[22].wlan[0].radio radioMode:vector ETV
attr interpolationmode sample-hold
attr source radioModeChanged
attr title "Radio mode, vector"
vector 44 FanetGpsrNormal.grayhole[23].wlan[0].radio radioMode:vector ETV
attr interpolationmode sample-hold
attr source radioModeChanged
attr title "Radio mode, vector"
vector 45 FanetGpsrNormal.grayhole[24].wlan[0].radio radioMode:vector ETV
attr interpolationmode sample-hold
attr source radioModeChanged
attr title "Radio mode, vector"
vector 46 FanetGpsrNormal.grayhole[25].wlan[0].radio radioMode:vector ETV
attr interpolationmode sample-hold
attr source radioModeChanged
attr title "Radio mode, vector"
vector 47 FanetGpsrNormal.grayhole[26].wlan[0].radio radioMode:vector ETV
attr interpolationmode sample-hold
attr source radioModeChanged
attr title "Radio mode, vector"
vector 48 FanetGpsrNormal.grayhole[27].wlan[0].radio radioMode:vector ETV
attr interpolationmode sample-hold
attr source radioModeChanged
attr title "Radio mode, vector"
vector 49 FanetGpsrNormal.grayhole[28].wlan[0].radio radioMode:vector ETV
attr interpolationmode sample-hold
attr source radioModeChanged
attr title "Radio mode, vector"
vector 50 FanetGpsrNormal.grayhole[29].wlan[0].radio radioMode:vector ETV
attr interpolationmode sample-hold
attr source radioModeChanged
attr title "Radio mode, vector"
vector 51 FanetGpsrNormal.grayhole[30].wlan[0].radio radioMode:vector ETV
attr interpolationmode sample-hold
attr source radioModeChanged
attr title "Radio mode, vector"
vector 52 FanetGpsrNormal.grayhole[31].wlan[0].radio radioMode:vector ETV
attr interpolationmode sample-hold
attr source radioModeChanged
attr title "Radio mode, vector"
vector 53 FanetGpsrNormal.grayhole[32].wlan[0].radio radioMode:vector ETV
attr interpolationmode sample-hold
attr source radioModeChanged
attr title "Radio mode, vector"
vector 54 FanetGpsrNormal.grayhole[33].wlan[0].radio radioMode:vector ETV
attr interpolationmode sample-hold
attr source radioModeChanged
attr title "Radio mode, vector"
vector 55 FanetGpsrNormal.grayhole[34].wlan[0].radio radioMode:vector ETV
attr interpolationmode sample-hold
attr source radioModeChanged
attr title "Radio mode, vector"
vector 56 FanetGpsrNormal.grayhole[35].wlan[0].radio radioMode:vector ETV
attr interpolationmode sample-hold
attr source radioModeChanged
attr title "Radio mode, vector"
vector 57 FanetGpsrNormal.grayhole[36].wlan[0].radio radioMode:vector ETV
attr interpolationmode sample-hold
attr source radioModeChanged
attr title "Radio mode, vector"
vector 58 FanetGpsrNormal.grayhole[37].wlan[0].radio radioMode:vector ETV
attr interpolationmode sample-hold
attr source radioModeChanged
attr title "Radio mode, vector"
vector 59 FanetGpsrNormal.grayhole[38].wlan[0].radio radioMode:vector ETV
attr interpolationmode sample-hold
attr source radioModeChanged
attr title "Radio mode, vector"
vector 60 FanetGpsrNormal.grayhole[39].wlan[0].radio radioMode:vector ETV
attr interpolationmode sample-hold
attr source radioModeChanged
attr title "Radio mode, vector"
vector 61 FanetGpsrNormal.grayhole[40].wlan[0].radio radioMode:vector ETV
attr interpolationmode sample-hold
attr source radioModeChanged
attr title "Radio mode, vector"
vector 62 FanetGpsrNormal.grayhole[41].wlan[0].radio radioMode:vector ETV
attr interpolationmode sample-hold
attr source radioModeChanged
attr title "Radio mode, vector"
vector 63 FanetGpsrNormal.grayhole[42].wlan[0].radio radioMode:vector ETV
attr interpolationmode sample-hold
attr source radioModeChanged
attr title "Radio mode, vector"
vector 64 FanetGpsrNormal.grayhole[43].wlan[0].radio radioMode:vector ETV
attr interpolationmode sample-hold
attr source radioModeChanged
attr title "Radio mode, vector"
vector 65 FanetGpsrNormal.grayhole[44].wlan[0].radio radioMode:vector ETV
attr interpolationmode sample-hold
attr source radioModeChanged
attr title "Radio mode, vector"
vector 66 FanetGpsrNormal.grayhole[45].wlan[0].radio radioMode:vector ETV
attr interpolationmode sample-hold
attr source radioModeChanged
attr title "Radio mode, vector"
vector 67 FanetGpsrNormal.grayhole[46].wlan[0].radio radioMode:vector ETV
attr interpolationmode sample-hold
attr source radioModeChanged
attr title "Radio mode, vector"
vector 68 FanetGpsrNormal.grayhole[47].wlan[0].radio radioMode:vector ETV
attr interpolationmode sample-hold
attr source radioModeChanged
attr title "Radio mode, vector"
vector 69 FanetGpsrNormal.grayhole[48].wlan[0].radio radioMode:vector ETV
attr interpolationmode sample-hold
attr source radioModeChanged
attr title "Radio mode, vector"
vector 70 FanetGpsrNormal.grayhole[49].wlan[0].radio radioMode:vector ETV
attr interpolationmode sample-hold
attr source radioModeChanged
attr title "Radio mode, vector"
vector 71 FanetGpsrNormal.grayhole[50].wlan[0].radio radioMode:vector ETV
attr interpolationmode sample-hold
attr source radioModeChanged
attr title "Radio mode, vector"
vector 72 FanetGpsrNormal.grayhole[51].wlan[0].radio radioMode:vector ETV
attr interpolationmode sample-hold
attr source radioModeChanged
attr title "Radio mode, vector"
vector 73 FanetGpsrNormal.grayhole[52].wlan[0].radio radioMode:vector ETV
attr interpolationmode sample-hold
attr source radioModeChanged
attr title "Radio mode, vector"
vector 74 FanetGpsrNormal.grayhole[53].wlan[0].radio radioMode:vector ETV
attr interpolationmode sample-hold
attr source radioModeChanged
attr title "Radio mode, vector"
vector 75 FanetGpsrNormal.grayhole[54].wlan[0].radio radioMode:vector ETV
attr interpolationmode sample-hold
attr source radioModeChanged
attr title "Radio mode, vector"
vector 76 FanetGpsrNormal.grayhole[55].wlan[0].radio radioMode:vector ETV
attr interpolationmode sample-hold
attr source radioModeChanged
attr title "Radio mode, vector"
vector 77 FanetGpsrNormal.grayhole[56].wlan[0].radio radioMode:vector ETV
attr interpolationmode sample-hold
attr source radioModeChanged
attr title "Radio mode, vector"
vector 78 FanetGpsrNormal.grayhole[57].wlan[0].radio radioMode:vector ETV
attr interpolationmode sample-hold
attr source radioModeChanged
attr title "Radio mode, vector"
vector 79 FanetGpsrNormal.grayhole[58].wlan[0].radio radioMode:vector ETV
attr interpolationmode sample-hold
attr source radioModeChanged
attr title "Radio mode, vector"
vector 80 FanetGpsrNormal.grayhole[59].wlan[0].radio radioMode:vector ETV
attr interpolationmode sample-hold
attr source radioModeChanged
attr title "Radio mode, vector"
vector 81 FanetGpsrNormal.grayhole[60].wlan[0].radio radioMode:vector ETV
attr interpolationmode sample-hold
attr source radioModeChanged
attr title "Radio mode, vector"
vector 82 FanetGpsrNormal.grayhole[61].wlan[0].radio radioMode:vector ETV
attr interpolationmode sample-hold
attr source radioModeChanged
attr title "Radio mode, vector"
vector 83 FanetGpsrNormal.grayhole[62].wlan[0].radio radioMode:vector ETV
attr interpolationmode sample-hold
attr source radioModeChanged
attr title "Radio mode, vector"
vector 84 FanetGpsrNormal.grayhole[63].wlan[0].radio radioMode:vector ETV
attr interpolationmode sample-hold
attr source radioModeChanged
attr title "Radio mode, vector"
vector 85 FanetGpsrNormal.grayhole[64].wlan[0].radio radioMode:vector ETV
attr interpolationmode sample-hold
attr source radioModeChanged
attr title "Radio mode, vector"
vector 86 FanetGpsrNormal.grayhole[65].wlan[0].radio radioMode:vector ETV
attr interpolationmode sample-hold
attr source radioModeChanged
attr title "Radio mode, vector"
vector 87 FanetGpsrNormal.grayhole[66].wlan[0].radio radioMode:vector ETV
attr interpolationmode sample-hold
attr source radioModeChanged
attr title "Radio mode, vector"
vector 88 FanetGpsrNormal.grayhole[67].wlan[0].radio radioMode:vector ETV
attr interpolationmode sample-hold
attr source radioModeChanged
attr title "Radio mode, vector"
vector 89 FanetGpsrNormal.grayhole[68].wlan[0].radio radioMode:vector ETV
attr interpolationmode sample-hold
attr source radioModeChanged
attr title "Radio mode, vector"
vector 90 FanetGpsrNormal.grayhole[69].wlan[0].radio radioMode:vector ETV
attr interpolationmode sample-hold
attr source radioModeChanged
attr title "Radio mode, vector"
vector 91 FanetGpsrNormal.grayhole[70].wlan[0].radio radioMode:vector ETV
attr interpolationmode sample-hold
attr source radioModeChanged
attr title "Radio mode, vector"
vector 92 FanetGpsrNormal.grayhole[71].wlan[0].radio radioMode:vector ETV
attr interpolationmode sample-hold
attr source radioModeChanged
attr title "Radio mode, vector"
vector 93 FanetGpsrNormal.grayhole[72].wlan[0].radio radioMode:vector ETV
attr interpolationmode sample-hold
attr source radioModeChanged
attr title "Radio mode, vector"
vector 94 FanetGpsrNormal.grayhole[73].wlan[0].radio radioMode:vector ETV
attr interpolationmode sample-hold
attr source radioModeChanged
attr title "Radio mode, vector"
vector 95 FanetGpsrNormal.grayhole[74].wlan[0].radio radioMode:vector ETV
attr interpolationmode sample-hold
attr source radioModeChanged
attr title "Radio mode, vector"
vector 96 FanetGpsrNormal.grayhole[75].wlan[0].radio radioMode:vector ETV
attr interpolationmode sample-hold
attr source radioModeChanged
attr title "Radio mode, vector"
vector 97 FanetGpsrNormal.grayhole[76].wlan[0].radio radioMode:vector ETV
attr interpolationmode sample-hold
attr source radioModeChanged
attr title "Radio mode, vector"
vector 98 FanetGpsrNormal.grayhole[77].wlan[0].radio radioMode:vector ETV
attr interpolationmode sample-hold
attr source radioModeChanged
attr title "Radio mode, vector"
vector 99 FanetGpsrNormal.grayhole[78].wlan[0].radio radioMode:vector ETV
attr interpolationmode sample-hold
attr source radioModeChanged
attr title "Radio mode, vector"
vector 100 FanetGpsrNormal.grayhole[79].wlan[0].radio radioMode:vector ETV
attr interpolationmode sample-hold
attr source radioModeChanged
attr title "Radio mode, vector"
vector 101 FanetGpsrNormal.grayhole[80].wlan[0].radio radioMode:vector ETV
attr interpolationmode sample-hold
attr source radioModeChanged
attr title "Radio mode, vector"
vector 102 FanetGpsrNormal.grayhole[81].wlan[0].radio radioMode:vector ETV
attr interpolationmode sample-hold
attr source radioModeChanged
attr title "Radio mode, vector"
vector 103 FanetGpsrNormal.grayhole[82].wlan[0].radio radioMode:vector ETV
attr interpolationmode sample-hold
attr source radioModeChanged
attr title "Radio mode, vector"
vector 104 FanetGpsrNormal.grayhole[83].wlan[0].radio radioMode:vector ETV
attr interpolationmode sample-hold
attr source radioModeChanged
attr title "Radio mode, vector"
vector 105 FanetGpsrNormal.grayhole[84].wlan[0].radio radioMode:vector ETV
attr interpolationmode sample-hold
attr source radioModeChanged
attr title "Radio mode, vector"
vector 106 FanetGpsrNormal.grayhole[85].wlan[0].radio radioMode:vector ETV
attr interpolationmode sample-hold
attr source radioModeChanged
attr title "Radio mode, vector"
vector 107 FanetGpsrNormal.grayhole[86].wlan[0].radio radioMode:vector ETV
attr interpolationmode sample-hold
attr source radioModeChanged
attr title "Radio mode, vector"
vector 108 FanetGpsrNormal.grayhole[87].wlan[0].radio radioMode:vector ETV
attr interpolationmode sample-hold
attr source radioModeChanged
attr title "Radio mode, vector"
vector 109 FanetGpsrNormal.grayhole[88].wlan[0].radio radioMode:vector ETV
attr interpolationmode sample-hold
attr source radioModeChanged
attr title "Radio mode, vector"
vector 110 FanetGpsrNormal.grayhole[89].wlan[0].radio radioMode:vector ETV
attr interpolationmode sample-hold
attr source radioModeChanged
attr title "Radio mode, vector"
vector 111 FanetGpsrNormal.grayhole[90].wlan[0].radio radioMode:vector ETV
attr interpolationmode sample-hold
attr source radioModeChanged
attr title "Radio mode, vector"
vector 112 FanetGpsrNormal.grayhole[91].wlan[0].radio radioMode:vector ETV
attr interpolationmode sample-hold
attr source radioModeChanged
attr title "Radio mode, vector"
vector 113 FanetGpsrNormal.grayhole[92].wlan[0].radio radioMode:vector ETV
attr interpolationmode sample-hold
attr source radioModeChanged
attr title "Radio mode, vector"
vector 114 FanetGpsrNormal.grayhole[93].wlan[0].radio radioMode:vector ETV
attr interpolationmode sample-hold
attr source radioModeChanged
attr title "Radio mode, vector"
vector 115 FanetGpsrNormal.grayhole[94].wlan[0].radio radioMode:vector ETV
attr interpolationmode sample-hold
attr source radioModeChanged
attr title "Radio mode, vector"
vector 116 FanetGpsrNormal.grayhole[95].wlan[0].radio radioMode:vector ETV
attr interpolationmode sample-hold
attr source radioModeChanged
attr title "Radio mode, vector"
vector 117 FanetGpsrNormal.grayhole[96].wlan[0].radio radioMode:vector ETV
attr interpolationmode sample-hold
attr source radioModeChanged
attr title "Radio mode, vector"
vector 118 FanetGpsrNormal.grayhole[97].wlan[0].radio radioMode:vector ETV
attr interpolationmode sample-hold
attr source radioModeChanged
attr title "Radio mode, vector"
vector 119 FanetGpsrNormal.grayhole[98].wlan[0].radio radioMode:vector ETV
attr interpolationmode sample-hold
attr source radioModeChanged
attr title "Radio mode, vector"
vector 120 FanetGpsrNormal.grayhole[99].wlan[0].radio radioMode:vector ETV
attr interpolationmode sample-hold
attr source radioModeChanged
attr title "Radio mode, vector"
vector 121 FanetGpsrNormal.host[0].wlan[0].radio receptionState:vector ETV
attr interpolationmode sample-hold
attr source receptionStateChanged
attr title "Radio reception state, vector"
vector 122 FanetGpsrNormal.host[0].wlan[0].radio transmissionState:vector ETV
attr interpolationmode sample-hold
attr source transmissionStateChanged
attr title "Radio transmission state, vector"
vector 123 FanetGpsrNormal.host[1].wlan[0].radio receptionState:vector ETV
attr interpolationmode sample-hold
attr source receptionStateChanged
attr title "Radio reception state, vector"
vector 124 FanetGpsrNormal.host[1].wlan[0].radio transmissionState:vector ETV
attr interpolationmode sample-hold
attr source transmissionStateChanged
attr title "Radio transmission state, vector"
vector 125 FanetGpsrNormal.host[2].wlan[0].radio receptionState:vector ETV
attr interpolationmode sample-hold
attr source receptionStateChanged
attr title "Radio reception state, vector"
vector 126 FanetGpsrNormal.host[2].wlan[0].radio transmissionState:vector ETV
attr interpolationmode sample-hold
attr source transmissionStateChanged
attr title "Radio transmission state, vector"
vector 127 FanetGpsrNormal.host[3].wlan[0].radio receptionState:vector ETV
attr interpolationmode sample-hold
attr source receptionStateChanged
attr title "Radio reception state, vector"
vector 128 FanetGpsrNormal.host[3].wlan[0].radio transmissionState:vector ETV
attr interpolationmode sample-hold
attr source transmissionStateChanged
attr title "Radio transmission state, vector"
vector 129 FanetGpsrNormal.host[4].wlan[0].radio receptionState:vector ETV
attr interpolationmode sample-hold
attr source receptionStateChanged
attr title "Radio reception state, vector"
vector 130 FanetGpsrNormal.host[4].wlan[0].radio transmissionState:vector ETV
attr interpolationmode sample-hold
attr source transmissionStateChanged
attr title "Radio transmission state, vector"
vector 131 FanetGpsrNormal.host[5].wlan[0].radio receptionState:vector ETV
attr interpolationmode sample-hold
attr source receptionStateChanged
attr title "Radio reception state, vector"
vector 132 FanetGpsrNormal.host[5].wlan[0].radio transmissionState:vector ETV
attr interpolationmode sample-hold
attr source transmissionStateChanged
attr title "Radio transmission state, vector"
vector 133 FanetGpsrNormal.host[6].wlan[0].radio receptionState:vector ETV
attr interpolationmode sample-hold
attr source receptionStateChanged
attr title "Radio reception state, vector"
vector 134 FanetGpsrNormal.host[6].wlan[0].radio transmissionState:vector ETV
attr interpolationmode sample-hold
attr source transmissionStateChanged
attr title "Radio transmission state, vector"
vector 135 FanetGpsrNormal.host[7].wlan[0].radio receptionState:vector ETV
attr interpolationmode sample-hold
attr source receptionStateChanged
attr title "Radio reception state, vector"
vector 136 FanetGpsrNormal.host[7].wlan[0].radio transmissionState:vector ETV
attr interpolationmode sample-hold
attr source transmissionStateChanged
attr title "Radio transmission state, vector"
vector 137 FanetGpsrNormal.host[8].wlan[0].radio receptionState:vector ETV
attr interpolationmode sample-hold
attr source receptionStateChanged
attr title "Radio reception state, vector"
vector 138 FanetGpsrNormal.host[8].wlan[0].radio transmissionState:vector ETV
attr interpolationmode sample-hold
attr source transmissionStateChanged
attr title "Radio transmission state, vector"
vector 139 FanetGpsrNormal.host[9].wlan[0].radio receptionState:vector ETV
attr interpolationmode sample-hold
attr source receptionStateChanged
attr title "Radio reception state, vector"
vector 140 FanetGpsrNormal.host[9].wlan[0].radio transmissionState:vector ETV
attr interpolationmode sample-hold
attr source transmissionStateChanged
attr title "Radio transmission state, vector"
vector 141 FanetGpsrNormal.host[10].wlan[0].radio receptionState:vector ETV
attr interpolationmode sample-hold
attr source receptionStateChanged
attr title "Radio reception state, vector"
vector 142 FanetGpsrNormal.host[10].wlan[0].radio transmissionState:vector ETV
attr interpolationmode sample-hold
attr source transmissionStateChanged
attr title "Radio transmission state, vector"
vector 143 FanetGpsrNormal.host[11].wlan[0].radio receptionState:vector ETV
attr interpolationmode sample-hold
attr source receptionStateChanged
attr title "Radio reception state, vector"
vector 144 FanetGpsrNormal.host[11].wlan[0].radio transmissionState:vector ETV
attr interpolationmode sample-hold
attr source transmissionStateChanged
attr title "Radio transmission state, vector"
vector 145 FanetGpsrNormal.host[12].wlan[0].radio receptionState:vector ETV
attr interpolationmode sample-hold
attr source receptionStateChanged
attr title "Radio reception state, vector"
vector 146 FanetGpsrNormal.host[12].wlan[0].radio transmissionState:vector ETV
attr interpolationmode sample-hold
attr source transmissionStateChanged
attr title "Radio transmission state, vector"
vector 147 FanetGpsrNormal.host[13].wlan[0].radio receptionState:vector ETV
attr interpolationmode sample-hold
attr source receptionStateChanged
attr title "Radio reception state, vector"
vector 148 FanetGpsrNormal.host[13].wlan[0].radio transmissionState:vector ETV
attr interpolationmode sample-hold
attr source transmissionStateChanged
attr title "Radio transmission state, vector"
vector 149 FanetGpsrNormal.host[14].wlan[0].radio receptionState:vector ETV
attr interpolationmode sample-hold
attr source receptionStateChanged
attr title "Radio reception state, vector"
vector 150 FanetGpsrNormal.host[14].wlan[0].radio transmissionState:vector ETV
attr interpolationmode sample-hold
attr source transmissionStateChanged
attr title "Radio transmission state, vector"
vector 151 FanetGpsrNormal.host[15].wlan[0].radio receptionState:vector ETV
attr interpolationmode sample-hold
attr source receptionStateChanged
attr title "Radio reception state, vector"
vector 152 FanetGpsrNormal.host[15].wlan[0].radio transmissionState:vector ETV
attr interpolationmode sample-hold
attr source transmissionStateChanged
attr title "Radio transmission state, vector"
vector 153 FanetGpsrNormal.host[16].wlan[0].radio receptionState:vector ETV
attr interpolationmode sample-hold
attr source receptionStateChanged
attr title "Radio reception state, vector"
vector 154 FanetGpsrNormal.host[16].wlan[0].radio transmissionState:vector ETV
attr interpolationmode sample-hold
attr source transmissionStateChanged
attr title "Radio transmission state, vector"
vector 155 FanetGpsrNormal.host[17].wlan[0].radio receptionState:vector ETV
attr interpolationmode sample-hold
attr source receptionStateChanged
attr title "Radio reception state, vector"
vector 156 FanetGpsrNormal.host[17].wlan[0].radio transmissionState:vector ETV
attr interpolationmode sample-hold
attr source transmissionStateChanged
attr title "Radio transmission state, vector"
vector 157 FanetGpsrNormal.host[18].wlan[0].radio receptionState:vector ETV
attr interpolationmode sample-hold
attr source receptionStateChanged
attr title "Radio reception state, vector"
vector 158 FanetGpsrNormal.host[18].wlan[0].radio transmissionState:vector ETV
attr interpolationmode sample-hold
attr source transmissionStateChanged
attr title "Radio transmission state, vector"
vector 159 FanetGpsrNormal.host[19].wlan[0].radio receptionState:vector ETV
attr interpolationmode sample-hold
attr source receptionStateChanged
attr title "Radio reception state, vector"
vector 160 FanetGpsrNormal.host[19].wlan[0].radio transmissionState:vector ETV
attr interpolationmode sample-hold
attr source transmissionStateChanged
attr title "Radio transmission state, vector"
vector 161 FanetGpsrNormal.host[20].wlan[0].radio receptionState:vector ETV
attr interpolationmode sample-hold
attr source receptionStateChanged
attr title "Radio reception state, vector"
vector 162 FanetGpsrNormal.host[20].wlan[0].radio transmissionState:vector ETV
attr interpolationmode sample-hold
attr source transmissionStateChanged
attr title "Radio transmission state, vector"
vector 163 FanetGpsrNormal.grayhole[0].wlan[0].radio receptionState:vector ETV
attr interpolationmode sample-hold
attr source receptionStateChanged
attr title "Radio reception state, vector"
vector 164 FanetGpsrNormal.grayhole[0].wlan[0].radio transmissionState:vector ETV
attr interpolationmode sample-hold
attr source transmissionStateChanged
attr title "Radio transmission state, vector"
vector 165 FanetGpsrNormal.grayhole[1].wlan[0].radio receptionState:vector ETV
attr interpolationmode sample-hold
attr source receptionStateChanged
attr title "Radio reception state, vector"
vector 166 FanetGpsrNormal.grayhole[1].wlan[0].radio transmissionState:vector ETV
attr interpolationmode sample-hold
attr source transmissionStateChanged
attr title "Radio transmission state, vector"
vector 167 FanetGpsrNormal.grayhole[2].wlan[0].radio receptionState:vector ETV
attr interpolationmode sample-hold
attr source receptionStateChanged
attr title "Radio reception state, vector"
vector 168 FanetGpsrNormal.grayhole[2].wlan[0].radio transmissionState:vector ETV
attr interpolationmode sample-hold
attr source transmissionStateChanged
attr title "Radio transmission state, vector"
vector 169 FanetGpsrNormal.grayhole[3].wlan[0].radio receptionState:vector ETV
attr interpolationmode sample-hold
attr source receptionStateChanged
attr title "Radio reception state, vector"
vector 170 FanetGpsrNormal.grayhole[3].wlan[0].radio transmissionState:vector ETV
attr interpolationmode sample-hold
attr source transmissionStateChanged
attr title "Radio transmission state, vector"
vector 171 FanetGpsrNormal.grayhole[4].wlan[0].radio receptionState:vector ETV
attr interpolationmode sample-hold
attr source receptionStateChanged
attr title "Radio reception state, vector"
vector 172 FanetGpsrNormal.grayhole[4].wlan[0].radio transmissionState:vector ETV
attr interpolationmode sample-hold
attr source transmissionStateChanged
attr title "Radio transmission state, vector"
vector 173 FanetGpsrNormal.grayhole[5].wlan[0].radio receptionState:vector ETV
attr interpolationmode sample-hold
attr source receptionStateChanged
attr title "Radio reception state, vector"
vector 174 FanetGpsrNormal.grayhole[5].wlan[0].radio transmissionState:vector ETV
attr interpolationmode sample-hold
attr source transmissionStateChanged
attr title "Radio transmission state, vector"
vector 175 FanetGpsrNormal.grayhole[6].wlan[0].radio receptionState:vector ETV
attr interpolationmode sample-hold
attr source receptionStateChanged
attr title "Radio reception state, vector"
vector 176 FanetGpsrNormal.grayhole[6].wlan[0].radio transmissionState:vector ETV
attr interpolationmode sample-hold
attr source transmissionStateChanged
attr title "Radio transmission state, vector"
vector 177 FanetGpsrNormal.grayhole[7].wlan[0].radio receptionState:vector ETV
attr interpolationmode sample-hold
attr source receptionStateChanged
attr title "Radio reception state, vector"
vector 178 FanetGpsrNormal.grayhole[7].wlan[0].radio transmissionState:vector ETV
attr interpolationmode sample-hold
attr source transmissionStateChanged
attr title "Radio transmission state, vector"
vector 179 FanetGpsrNormal.grayhole[8].wlan[0].radio receptionState:vector ETV
attr interpolationmode sample-hold
attr source receptionStateChanged
attr title "Radio reception state, vector"
vector 180 FanetGpsrNormal.grayhole[8].wlan[0].radio transmissionState:vector ETV
attr interpolationmode sample-hold
attr source transmissionStateChanged
attr title "Radio transmission state, vector"
vector 181 FanetGpsrNormal.grayhole[9].wlan[0].radio receptionState:vector ETV
attr interpolationmode sample-hold
attr source receptionStateChanged
attr title "Radio reception state, vector"
vector 182 FanetGpsrNormal.grayhole[9].wlan[0].radio transmissionState:vector ETV
attr interpolationmode sample-hold
attr source transmissionStateChanged
attr title "Radio transmission state, vector"
vector 183 FanetGpsrNormal.grayhole[10].wlan[0].radio receptionState:vector ETV
attr interpolationmode sample-hold
attr source receptionStateChanged
attr title "Radio reception state, vector"
vector 184 FanetGpsrNormal.grayhole[10].wlan[0].radio transmissionState:vector ETV
attr interpolationmode sample-hold
attr source transmissionStateChanged
attr title "Radio transmission state, vector"
vector 185 FanetGpsrNormal.grayhole[11].wlan[0].radio receptionState:vector ETV
attr interpolationmode sample-hold
attr source receptionStateChanged
attr title "Radio reception state, vector"
vector 186 FanetGpsrNormal.grayhole[11].wlan[0].radio transmissionState:vector ETV
attr interpolationmode sample-hold
attr source transmissionStateChanged
attr title "Radio transmission state, vector"
vector 187 FanetGpsrNormal.grayhole[12].wlan[0].radio receptionState:vector ETV
attr interpolationmode sample-hold
attr source receptionStateChanged
attr title "Radio reception state, vector"
vector 188 FanetGpsrNormal.grayhole[12].wlan[0].radio transmissionState:vector ETV
attr interpolationmode sample-hold
attr source transmissionStateChanged
attr title "Radio transmission state, vector"
vector 189 FanetGpsrNormal.grayhole[13].wlan[0].radio receptionState:vector ETV
attr interpolationmode sample-hold
attr source receptionStateChanged
attr title "Radio reception state, vector"
vector 190 FanetGpsrNormal.grayhole[13].wlan[0].radio transmissionState:vector ETV
attr interpolationmode sample-hold
attr source transmissionStateChanged
attr title "Radio transmission state, vector"
vector 191 FanetGpsrNormal.grayhole[14].wlan[0].radio receptionState:vector ETV
attr interpolationmode sample-hold
attr source receptionStateChanged
attr title "Radio reception state, vector"
vector 192 FanetGpsrNormal.grayhole[14].wlan[0].radio transmissionState:vector ETV
attr interpolationmode sample-hold
attr source transmissionStateChanged
attr title "Radio transmission state, vector"
vector 193 FanetGpsrNormal.grayhole[15].wlan[0].radio receptionState:vector ETV
attr interpolationmode sample-hold
attr source receptionStateChanged
attr title "Radio reception state, vector"
vector 194 FanetGpsrNormal.grayhole[15].wlan[0].radio transmissionState:vector ETV
attr interpolationmode sample-hold
attr source transmissionStateChanged
attr title "Radio transmission state, vector"
vector 195 FanetGpsrNormal.grayhole[16].wlan[0].radio receptionState:vector ETV
attr interpolationmode sample-hold
attr source receptionStateChanged
attr title "Radio reception state, vector"
vector 196 FanetGpsrNormal.grayhole[16].wlan[0].radio transmissionState:vector ETV
attr interpolationmode sample-hold
attr source transmissionStateChanged
attr title "Radio transmission state, vector"
vector 197 FanetGpsrNormal.grayhole[17].wlan[0].radio receptionState:vector ETV
attr interpolationmode sample-hold
attr source receptionStateChanged
attr title "Radio reception state, vector"
vector 198 FanetGpsrNormal.grayhole[17].wlan[0].radio transmissionState:vector ETV
attr interpolationmode sample-hold
attr source transmissionStateChanged
attr title "Radio transmission state, vector"
vector 199 FanetGpsrNormal.grayhole[18].wlan[0].radio receptionState:vector ETV
attr interpolationmode sample-hold
attr source receptionStateChanged
attr title "Radio reception state, vector"
vector 200 FanetGpsrNormal.grayhole[18].wlan[0].radio transmissionState:vector ETV
attr interpolationmode sample-hold
attr source transmissionStateChanged
attr title "Radio transmission state, vector"
vector 201 FanetGpsrNormal.grayhole[19].wlan[0].radio receptionState:vector ETV
attr interpolationmode sample-hold
attr source receptionStateChanged
attr title "Radio reception state, vector"
vector 202 FanetGpsrNormal.grayhole[19].wlan[0].radio transmissionState:vector ETV
attr interpolationmode sample-hold
attr source transmissionStateChanged
attr title "Radio transmission state, vector"
vector 203 FanetGpsrNormal.grayhole[20].wlan[0].radio receptionState:vector ETV
attr interpolationmode sample-hold
attr source receptionStateChanged
attr title "Radio reception state, vector"
vector 204 FanetGpsrNormal.grayhole[20].wlan[0].radio transmissionState:vector ETV
attr interpolationmode sample-hold
attr source transmissionStateChanged
attr title "Radio transmission state, vector"
vector 205 FanetGpsrNormal.grayhole[21].wlan[0].radio receptionState:vector ETV
attr interpolationmode sample-hold
attr source receptionStateChanged
attr title "Radio reception state, vector"
vector 206 FanetGpsrNormal.grayhole[21].wlan[0].radio transmissionState:vector ETV
attr interpolationmode sample-hold
attr source transmissionStateChanged
attr title "Radio transmission state, vector"
vector 207 FanetGpsrNormal.grayhole[22].wlan[0].radio receptionState:vector ETV
attr interpolationmode sample-hold
attr source receptionStateChanged
attr title "Radio reception state, vector"
vector 208 FanetGpsrNormal.grayhole[22].wlan[0].radio transmissionState:vector ETV
attr interpolationmode sample-hold
attr source transmissionStateChanged
attr title "Radio transmission state, vector"
vector 209 FanetGpsrNormal.grayhole[23].wlan[0].radio receptionState:vector ETV
attr interpolationmode sample-hold
attr source receptionStateChanged
attr title "Radio reception state, vector"
vector 210 FanetGpsrNormal.grayhole[23].wlan[0].radio transmissionState:vector ETV
attr interpolationmode sample-hold
attr source transmissionStateChanged
attr title "Radio transmission state, vector"
vector 211 FanetGpsrNormal.grayhole[24].wlan[0].radio receptionState:vector ETV
attr interpolationmode sample-hold
attr source receptionStateChanged
attr title "Radio reception state, vector"
vector 212 FanetGpsrNormal.grayhole[24].wlan[0].radio transmissionState:vector ETV
attr interpolationmode sample-hold
attr source transmissionStateChanged
attr title "Radio transmission state, vector"
vector 213 FanetGpsrNormal.grayhole[25].wlan[0].radio receptionState:vector ETV
attr interpolationmode sample-hold
attr source receptionStateChanged
attr title "Radio reception state, vector"
vector 214 FanetGpsrNormal.grayhole[25].wlan[0].radio transmissionState:vector ETV
attr interpolationmode sample-hold
attr source transmissionStateChanged
attr title "Radio transmission state, vector"
vector 215 FanetGpsrNormal.grayhole[26].wlan[0].radio receptionState:vector ETV
attr interpolationmode sample-hold
attr source receptionStateChanged
attr title "Radio reception state, vector"
vector 216 FanetGpsrNormal.grayhole[26].wlan[0].radio transmissionState:vector ETV
attr interpolationmode sample-hold
attr source transmissionStateChanged
attr title "Radio transmission state, vector"
vector 217 FanetGpsrNormal.grayhole[27].wlan[0].radio receptionState:vector ETV
attr interpolationmode sample-hold
attr source receptionStateChanged
attr title "Radio reception state, vector"
vector 218 FanetGpsrNormal.grayhole[27].wlan[0].radio transmissionState:vector ETV
attr interpolationmode sample-hold
attr source transmissionStateChanged
attr title "Radio transmission state, vector"
vector 219 FanetGpsrNormal.grayhole[28].wlan[0].radio receptionState:vector ETV
attr interpolationmode sample-hold
attr source receptionStateChanged
attr title "Radio reception state, vector"
vector 220 FanetGpsrNormal.grayhole[28].wlan[0].radio transmissionState:vector ETV
attr interpolationmode sample-hold
attr source transmissionStateChanged
attr title "Radio transmission state, vector"
vector 221 FanetGpsrNormal.grayhole[29].wlan[0].radio receptionState:vector ETV
attr interpolationmode sample-hold
attr source receptionStateChanged
attr title "Radio reception state, vector"
vector 222 FanetGpsrNormal.grayhole[29].wlan[0].radio transmissionState:vector ETV
attr interpolationmode sample-hold
attr source transmissionStateChanged
attr title "Radio transmission state, vector"
vector 223 FanetGpsrNormal.grayhole[30].wlan[0].radio receptionState:vector ETV
attr interpolationmode sample-hold
attr source receptionStateChanged
attr title "Radio reception state, vector"
vector 224 FanetGpsrNormal.grayhole[30].wlan[0].radio transmissionState:vector ETV
attr interpolationmode sample-hold
attr source transmissionStateChanged
attr title "Radio transmission state, vector"
vector 225 FanetGpsrNormal.grayhole[31].wlan[0].radio receptionState:vector ETV
attr interpolationmode sample-hold
attr source receptionStateChanged
attr title "Radio reception state, vector"
vector 226 FanetGpsrNormal.grayhole[31].wlan[0].radio transmissionState:vector ETV
attr interpolationmode sample-hold
attr source transmissionStateChanged
attr title "Radio transmission state, vector"
vector 227 FanetGpsrNormal.grayhole[32].wlan[0].radio receptionState:vector ETV
attr interpolationmode sample-hold
attr source receptionStateChanged
attr title "Radio reception state, vector"
vector 228 FanetGpsrNormal.grayhole[32].wlan[0].radio transmissionState:vector ETV
attr interpolationmode sample-hold
attr source transmissionStateChanged
attr title "Radio transmission state, vector"
vector 229 FanetGpsrNormal.grayhole[33].wlan[0].radio receptionState:vector ETV
attr interpolationmode sample-hold
attr source receptionStateChanged
attr title "Radio reception state, vector"
vector 230 FanetGpsrNormal.grayhole[33].wlan[0].radio transmissionState:vector ETV
attr interpolationmode sample-hold
attr source transmissionStateChanged
attr title "Radio transmission state, vector"
vector 231 FanetGpsrNormal.grayhole[34].wlan[0].radio receptionState:vector ETV
attr interpolationmode sample-hold
attr source receptionStateChanged
attr title "Radio reception state, vector"
vector 232 FanetGpsrNormal.grayhole[34].wlan[0].radio transmissionState:vector ETV
attr interpolationmode sample-hold
attr source transmissionStateChanged
attr title "Radio transmission state, vector"
vector 233 FanetGpsrNormal.grayhole[35].wlan[0].radio receptionState:vector ETV
attr interpolationmode sample-hold
attr source receptionStateChanged
attr title "Radio reception state, vector"
vector 234 FanetGpsrNormal.grayhole[35].wlan[0].radio transmissionState:vector ETV
attr interpolationmode sample-hold
attr source transmissionStateChanged
attr title "Radio transmission state, vector"
vector 235 FanetGpsrNormal.grayhole[36].wlan[0].radio receptionState:vector ETV
attr interpolationmode sample-hold
attr source receptionStateChanged
attr title "Radio reception state, vector"
vector 236 FanetGpsrNormal.grayhole[36].wlan[0].radio transmissionState:vector ETV
attr interpolationmode sample-hold
attr source transmissionStateChanged
attr title "Radio transmission state, vector"
vector 237 FanetGpsrNormal.grayhole[37].wlan[0].radio receptionState:vector ETV
attr interpolationmode sample-hold
attr source receptionStateChanged
attr title "Radio reception state, vector"
vector 238 FanetGpsrNormal.grayhole[37].wlan[0].radio transmissionState:vector ETV
attr interpolationmode sample-hold
attr source transmissionStateChanged
attr title "Radio transmission state, vector"
vector 239 FanetGpsrNormal.grayhole[38].wlan[0].radio receptionState:vector ETV
attr interpolationmode sample-hold
attr source receptionStateChanged
attr title "Radio reception state, vector"
vector 240 FanetGpsrNormal.grayhole[38].wlan[0].radio transmissionState:vector ETV
attr interpolationmode sample-hold
attr source transmissionStateChanged
attr title "Radio transmission state, vector"
vector 241 FanetGpsrNormal.grayhole[39].wlan[0].radio receptionState:vector ETV
attr interpolationmode sample-hold
attr source receptionStateChanged
attr title "Radio reception state, vector"
vector 242 FanetGpsrNormal.grayhole[39].wlan[0].radio transmissionState:vector ETV
attr interpolationmode sample-hold
attr source transmissionStateChanged
attr title "Radio transmission state, vector"
vector 243 FanetGpsrNormal.grayhole[40].wlan[0].radio receptionState:vector ETV
attr interpolationmode sample-hold
attr source receptionStateChanged
attr title "Radio reception state, vector"
vector 244 FanetGpsrNormal.grayhole[40].wlan[0].radio transmissionState:vector ETV
attr interpolationmode sample-hold
attr source transmissionStateChanged
attr title "Radio transmission state, vector"
vector 245 FanetGpsrNormal.grayhole[41].wlan[0].radio receptionState:vector ETV
attr interpolationmode sample-hold
attr source receptionStateChanged
attr title "Radio reception state, vector"
vector 246 FanetGpsrNormal.grayhole[41].wlan[0].radio transmissionState:vector ETV
attr interpolationmode sample-hold
attr source transmissionStateChanged
attr title "Radio transmission state, vector"
vector 247 FanetGpsrNormal.grayhole[42].wlan[0].radio receptionState:vector ETV
attr interpolationmode sample-hold
attr source receptionStateChanged
attr title "Radio reception state, vector"
vector 248 FanetGpsrNormal.grayhole[42].wlan[0].radio transmissionState:vector ETV
attr interpolationmode sample-hold
attr source transmissionStateChanged
attr title "Radio transmission state, vector"
vector 249 FanetGpsrNormal.grayhole[43].wlan[0].radio receptionState:vector ETV
attr interpolationmode sample-hold
attr source receptionStateChanged
attr title "Radio reception state, vector"
vector 250 FanetGpsrNormal.grayhole[43].wlan[0].radio transmissionState:vector ETV
attr interpolationmode sample-hold
attr source transmissionStateChanged
attr title "Radio transmission state, vector"
vector 251 FanetGpsrNormal.grayhole[44].wlan[0].radio receptionState:vector ETV
attr interpolationmode sample-hold
attr source receptionStateChanged
attr title "Radio reception state, vector"
vector 252 FanetGpsrNormal.grayhole[44].wlan[0].radio transmissionState:vector ETV
attr interpolationmode sample-hold
attr source transmissionStateChanged
attr title "Radio transmission state, vector"
vector 253 FanetGpsrNormal.grayhole[45].wlan[0].radio receptionState:vector ETV
attr interpolationmode sample-hold
attr source receptionStateChanged
attr title "Radio reception state, vector"
vector 254 FanetGpsrNormal.grayhole[45].wlan[0].radio transmissionState:vector ETV
attr interpolationmode sample-hold
attr source transmissionStateChanged
attr title "Radio transmission state, vector"
vector 255 FanetGpsrNormal.grayhole[46].wlan[0].radio receptionState:vector ETV
attr interpolationmode sample-hold
attr source receptionStateChanged
attr title "Radio reception state, vector"
vector 256 FanetGpsrNormal.grayhole[46].wlan[0].radio transmissionState:vector ETV
attr interpolationmode sample-hold
attr source transmissionStateChanged
attr title "Radio transmission state, vector"
vector 257 FanetGpsrNormal.grayhole[47].wlan[0].radio receptionState:vector ETV
attr interpolationmode sample-hold
attr source receptionStateChanged
attr title "Radio reception state, vector"
vector 258 FanetGpsrNormal.grayhole[47].wlan[0].radio transmissionState:vector ETV
attr interpolationmode sample-hold
attr source transmissionStateChanged
attr title "Radio transmission state, vector"
vector 259 FanetGpsrNormal.grayhole[48].wlan[0].radio receptionState:vector ETV
attr interpolationmode sample-hold
attr source receptionStateChanged
attr title "Radio reception state, vector"
vector 260 FanetGpsrNormal.grayhole[48].wlan[0].radio transmissionState:vector ETV
attr interpolationmode sample-hold
attr source transmissionStateChanged
attr title "Radio transmission state, vector"
vector 261 FanetGpsrNormal.grayhole[49].wlan[0].radio receptionState:vector ETV
attr interpolationmode sample-hold
attr source receptionStateChanged
attr title "Radio reception state, vector"
vector 262 FanetGpsrNormal.grayhole[49].wlan[0].radio transmissionState:vector ETV
attr interpolationmode sample-hold
attr source transmissionStateChanged
attr title "Radio transmission state, vector"
vector 263 FanetGpsrNormal.grayhole[50].wlan[0].radio receptionState:vector ETV
attr interpolationmode sample-hold
attr source receptionStateChanged
attr title "Radio reception state, vector"
vector 264 FanetGpsrNormal.grayhole[50].wlan[0].radio transmissionState:vector ETV
attr interpolationmode sample-hold
attr source transmissionStateChanged
attr title "Radio transmission state, vector"
vector 265 FanetGpsrNormal.grayhole[51].wlan[0].radio receptionState:vector ETV
attr interpolationmode sample-hold
attr source receptionStateChanged
attr title "Radio reception state, vector"
vector 266 FanetGpsrNormal.grayhole[51].wlan[0].radio transmissionState:vector ETV
attr interpolationmode sample-hold
attr source transmissionStateChanged
attr title "Radio transmission state, vector"
vector 267 FanetGpsrNormal.grayhole[52].wlan[0].radio receptionState:vector ETV
attr interpolationmode sample-hold
attr source receptionStateChanged
attr title "Radio reception state, vector"
vector 268 FanetGpsrNormal.grayhole[52].wlan[0].radio transmissionState:vector ETV
attr interpolationmode sample-hold
attr source transmissionStateChanged
attr title "Radio transmission state, vector"
vector 269 FanetGpsrNormal.grayhole[53].wlan[0].radio receptionState:vector ETV
attr interpolationmode sample-hold
attr source receptionStateChanged
attr title "Radio reception state, vector"
vector 270 FanetGpsrNormal.grayhole[53].wlan[0].radio transmissionState:vector ETV
attr interpolationmode sample-hold
attr source transmissionStateChanged
attr title "Radio transmission state, vector"
vector 271 FanetGpsrNormal.grayhole[54].wlan[0].radio receptionState:vector ETV
attr interpolationmode sample-hold
attr source receptionStateChanged
attr title "Radio reception state, vector"
vector 272 FanetGpsrNormal.grayhole[54].wlan[0].radio transmissionState:vector ETV
attr interpolationmode sample-hold
attr source transmissionStateChanged
attr title "Radio transmission state, vector"
vector 273 FanetGpsrNormal.grayhole[55].wlan[0].radio receptionState:vector ETV
attr interpolationmode sample-hold
attr source receptionStateChanged
attr title "Radio reception state, vector"
vector 274 FanetGpsrNormal.grayhole[55].wlan[0].radio transmissionState:vector ETV
attr interpolationmode sample-hold
attr source transmissionStateChanged
attr title "Radio transmission state, vector"
vector 275 FanetGpsrNormal.grayhole[56].wlan[0].radio receptionState:vector ETV
attr interpolationmode sample-hold
attr source receptionStateChanged
attr title "Radio reception state, vector"
vector 276 FanetGpsrNormal.grayhole[56].wlan[0].radio transmissionState:vector ETV
attr interpolationmode sample-hold
attr source transmissionStateChanged
attr title "Radio transmission state, vector"
vector 277 FanetGpsrNormal.grayhole[57].wlan[0].radio receptionState:vector ETV
attr interpolationmode sample-hold
attr source receptionStateChanged
attr title "Radio reception state, vector"
vector 278 FanetGpsrNormal.grayhole[57].wlan[0].radio transmissionState:vector ETV
attr interpolationmode sample-hold
attr source transmissionStateChanged
attr title "Radio transmission state, vector"
vector 279 FanetGpsrNormal.grayhole[58].wlan[0].radio receptionState:vector ETV
attr interpolationmode sample-hold
attr source receptionStateChanged
attr title "Radio reception state, vector"
vector 280 FanetGpsrNormal.grayhole[58].wlan[0].radio transmissionState:vector ETV
attr interpolationmode sample-hold
attr source transmissionStateChanged
attr title "Radio transmission state, vector"
vector 281 FanetGpsrNormal.grayhole[59].wlan[0].radio receptionState:vector ETV
attr interpolationmode sample-hold
attr source receptionStateChanged
attr title "Radio reception state, vector"
vector 282 FanetGpsrNormal.grayhole[59].wlan[0].radio transmissionState:vector ETV
attr interpolationmode sample-hold
attr source transmissionStateChanged
attr title "Radio transmission state, vector"
vector 283 FanetGpsrNormal.grayhole[60].wlan[0].radio receptionState:vector ETV
attr interpolationmode sample-hold
attr source receptionStateChanged
attr title "Radio reception state, vector"
vector 284 FanetGpsrNormal.grayhole[60].wlan[0].radio transmissionState:vector ETV
attr interpolationmode sample-hold
attr source transmissionStateChanged
attr title "Radio transmission state, vector"
vector 285 FanetGpsrNormal.grayhole[61].wlan[0].radio receptionState:vector ETV
attr interpolationmode sample-hold
attr source receptionStateChanged
attr title "Radio reception state, vector"
vector 286 FanetGpsrNormal.grayhole[61].wlan[0].radio transmissionState:vector ETV
attr interpolationmode sample-hold
attr source transmissionStateChanged
attr title "Radio transmission state, vector"
vector 287 FanetGpsrNormal.grayhole[62].wlan[0].radio receptionState:vector ETV
attr interpolationmode sample-hold
attr source receptionStateChanged
attr title "Radio reception state, vector"
vector 288 FanetGpsrNormal.grayhole[62].wlan[0].radio transmissionState:vector ETV
attr interpolationmode sample-hold
attr source transmissionStateChanged
attr title "Radio transmission state, vector"
vector 289 FanetGpsrNormal.grayhole[63].wlan[0].radio receptionState:vector ETV
attr interpolationmode sample-hold
attr source receptionStateChanged
attr title "Radio reception state, vector"
vector 290 FanetGpsrNormal.grayhole[63].wlan[0].radio transmissionState:vector ETV
attr interpolationmode sample-hold
attr source transmissionStateChanged
attr title "Radio transmission state, vector"
vector 291 FanetGpsrNormal.grayhole[64].wlan[0].radio receptionState:vector ETV
attr interpolationmode sample-hold
attr source receptionStateChanged
attr title "Radio reception state, vector"
vector 292 FanetGpsrNormal.grayhole[64].wlan[0].radio transmissionState:vector ETV
attr interpolationmode sample-hold
attr source transmissionStateChanged
attr title "Radio transmission state, vector"
vector 293 FanetGpsrNormal.grayhole[65].wlan[0].radio receptionState:vector ETV
attr interpolationmode sample-hold
attr source receptionStateChanged
attr title "Radio reception state, vector"
vector 294 FanetGpsrNormal.grayhole[65].wlan[0].radio transmissionState:vector ETV
attr interpolationmode sample-hold
attr source transmissionStateChanged
attr title "Radio transmission state, vector"
vector 295 FanetGpsrNormal.grayhole[66].wlan[0].radio receptionState:vector ETV
attr interpolationmode sample-hold
attr source receptionStateChanged
attr title "Radio reception state, vector"
vector 296 FanetGpsrNormal.grayhole[66].wlan[0].radio transmissionState:vector ETV
attr interpolationmode sample-hold
attr source transmissionStateChanged
attr title "Radio transmission state, vector"
vector 297 FanetGpsrNormal.grayhole[67].wlan[0].radio receptionState:vector ETV
attr interpolationmode sample-hold
attr source receptionStateChanged
attr title "Radio reception state, vector"
vector 298 FanetGpsrNormal.grayhole[67].wlan[0].radio transmissionState:vector ETV
attr interpolationmode sample-hold
attr source transmissionStateChanged
attr title "Radio transmission state, vector"
vector 299 FanetGpsrNormal.grayhole[68].wlan[0].radio receptionState:vector ETV
attr interpolationmode sample-hold
attr source receptionStateChanged
attr title "Radio reception state, vector"
vector 300 FanetGpsrNormal.grayhole[68].wlan[0].radio transmissionState:vector ETV
attr interpolationmode sample-hold
attr source transmissionStateChanged
attr title "Radio transmission state, vector"
vector 301 FanetGpsrNormal.grayhole[69].wlan[0].radio receptionState:vector ETV
attr interpolationmode sample-hold
attr source receptionStateChanged
attr title "Radio reception state, vector"
vector 302 FanetGpsrNormal.grayhole[69].wlan[0].radio transmissionState:vector ETV
attr interpolationmode sample-hold
attr source transmissionStateChanged
attr title "Radio transmission state, vector"
vector 303 FanetGpsrNormal.grayhole[70].wlan[0].radio receptionState:vector ETV
attr interpolationmode sample-hold
attr source receptionStateChanged
attr title "Radio reception state, vector"
vector 304 FanetGpsrNormal.grayhole[70].wlan[0].radio transmissionState:vector ETV
attr interpolationmode sample-hold
attr source transmissionStateChanged
attr title "Radio transmission state, vector"
vector 305 FanetGpsrNormal.grayhole[71].wlan[0].radio receptionState:vector ETV
attr interpolationmode sample-hold
attr source receptionStateChanged
attr title "Radio reception state, vector"
vector 306 FanetGpsrNormal.grayhole[71].wlan[0].radio transmissionState:vector ETV
attr interpolationmode sample-hold
attr source transmissionStateChanged
attr title "Radio transmission state, vector"
vector 307 FanetGpsrNormal.grayhole[72].wlan[0].radio receptionState:vector ETV
attr interpolationmode sample-hold
attr source receptionStateChanged
attr title "Radio reception state, vector"
vector 308 FanetGpsrNormal.grayhole[72].wlan[0].radio transmissionState:vector ETV
attr interpolationmode sample-hold
attr source transmissionStateChanged
attr title "Radio transmission state, vector"
vector 309 FanetGpsrNormal.grayhole[73].wlan[0].radio receptionState:vector ETV
attr interpolationmode sample-hold
attr source receptionStateChanged
attr title "Radio reception state, vector"
vector 310 FanetGpsrNormal.grayhole[73].wlan[0].radio transmissionState:vector ETV
attr interpolationmode sample-hold
attr source transmissionStateChanged
attr title "Radio transmission state, vector"
vector 311 FanetGpsrNormal.grayhole[74].wlan[0].radio receptionState:vector ETV
attr interpolationmode sample-hold
attr source receptionStateChanged
attr title "Radio reception state, vector"
vector 312 FanetGpsrNormal.grayhole[74].wlan[0].radio transmissionState:vector ETV
attr interpolationmode sample-hold
attr source transmissionStateChanged
attr title "Radio transmission state, vector"
vector 313 FanetGpsrNormal.grayhole[75].wlan[0].radio receptionState:vector ETV
attr interpolationmode sample-hold
attr source receptionStateChanged
attr title "Radio reception state, vector"
vector 314 FanetGpsrNormal.grayhole[75].wlan[0].radio transmissionState:vector ETV
attr interpolationmode sample-hold
attr source transmissionStateChanged
attr title "Radio transmission state, vector"
vector 315 FanetGpsrNormal.grayhole[76].wlan[0].radio receptionState:vector ETV
attr interpolationmode sample-hold
attr source receptionStateChanged
attr title "Radio reception state, vector"
vector 316 FanetGpsrNormal.grayhole[76].wlan[0].radio transmissionState:vector ETV
attr interpolationmode sample-hold
attr source transmissionStateChanged
attr title "Radio transmission state, vector"
vector 317 FanetGpsrNormal.grayhole[77].wlan[0].radio receptionState:vector ETV
attr interpolationmode sample-hold
attr source receptionStateChanged
attr title "Radio reception state, vector"
vector 318 FanetGpsrNormal.grayhole[77].wlan[0].radio transmissionState:vector ETV
attr interpolationmode sample-hold
attr source transmissionStateChanged
attr title "Radio transmission state, vector"
vector 319 FanetGpsrNormal.grayhole[78].wlan[0].radio receptionState:vector ETV
attr interpolationmode sample-hold
attr source receptionStateChanged
attr title "Radio reception state, vector"
vector 320 FanetGpsrNormal.grayhole[78].wlan[0].radio transmissionState:vector ETV
attr interpolationmode sample-hold
attr source transmissionStateChanged
attr title "Radio transmission state, vector"
vector 321 FanetGpsrNormal.grayhole[79].wlan[0].radio receptionState:vector ETV
attr interpolationmode sample-hold
attr source receptionStateChanged
attr title "Radio reception state, vector"
vector 322 FanetGpsrNormal.grayhole[79].wlan[0].radio transmissionState:vector ETV
attr interpolationmode sample-hold
attr source transmissionStateChanged
attr title "Radio transmission state, vector"
vector 323 FanetGpsrNormal.grayhole[80].wlan[0].radio receptionState:vector ETV
attr interpolationmode sample-hold
attr source receptionStateChanged
attr title "Radio reception state, vector"
vector 324 FanetGpsrNormal.grayhole[80].wlan[0].radio transmissionState:vector ETV
attr interpolationmode sample-hold
attr source transmissionStateChanged
attr title "Radio transmission state, vector"
vector 325 FanetGpsrNormal.grayhole[81].wlan[0].radio receptionState:vector ETV
attr interpolationmode sample-hold
attr source receptionStateChanged
attr title "Radio reception state, vector"
vector 326 FanetGpsrNormal.grayhole[81].wlan[0].radio transmissionState:vector ETV
attr interpolationmode sample-hold
attr source transmissionStateChanged
attr title "Radio transmission state, vector"
vector 327 FanetGpsrNormal.grayhole[82].wlan[0].radio receptionState:vector ETV
attr interpolationmode sample-hold
attr source receptionStateChanged
attr title "Radio reception state, vector"
vector 328 FanetGpsrNormal.grayhole[82].wlan[0].radio transmissionState:vector ETV
attr interpolationmode sample-hold
attr source transmissionStateChanged
attr title "Radio transmission state, vector"
vector 329 FanetGpsrNormal.grayhole[83].wlan[0].radio receptionState:vector ETV
attr interpolationmode sample-hold
attr source receptionStateChanged
attr title "Radio reception state, vector"
vector 330 FanetGpsrNormal.grayhole[83].wlan[0].radio transmissionState:vector ETV
attr interpolationmode sample-hold
attr source transmissionStateChanged
attr title "Radio transmission state, vector"
vector 331 FanetGpsrNormal.grayhole[84].wlan[0].radio receptionState:vector ETV
attr interpolationmode sample-hold
attr source receptionStateChanged
attr title "Radio reception state, vector"
vector 332 FanetGpsrNormal.grayhole[84].wlan[0].radio transmissionState:vector ETV
attr interpolationmode sample-hold
attr source transmissionStateChanged
attr title "Radio transmission state, vector"
vector 333 FanetGpsrNormal.grayhole[85].wlan[0].radio receptionState:vector ETV
attr interpolationmode sample-hold
attr source receptionStateChanged
attr title "Radio reception state, vector"
vector 334 FanetGpsrNormal.grayhole[85].wlan[0].radio transmissionState:vector ETV
attr interpolationmode sample-hold
attr source transmissionStateChanged
attr title "Radio transmission state, vector"
vector 335 FanetGpsrNormal.grayhole[86].wlan[0].radio receptionState:vector ETV
attr interpolationmode sample-hold
attr source receptionStateChanged
attr title "Radio reception state, vector"
vector 336 FanetGpsrNormal.grayhole[86].wlan[0].radio transmissionState:vector ETV
attr interpolationmode sample-hold
attr source transmissionStateChanged
attr title "Radio transmission state, vector"
vector 337 FanetGpsrNormal.grayhole[87].wlan[0].radio receptionState:vector ETV
attr interpolationmode sample-hold
attr source receptionStateChanged
attr title "Radio reception state, vector"
vector 338 FanetGpsrNormal.grayhole[87].wlan[0].radio transmissionState:vector ETV
attr interpolationmode sample-hold
attr source transmissionStateChanged
attr title "Radio transmission state, vector"
vector 339 FanetGpsrNormal.grayhole[88].wlan[0].radio receptionState:vector ETV
attr interpolationmode sample-hold
attr source receptionStateChanged
attr title "Radio reception state, vector"
vector 340 FanetGpsrNormal.grayhole[88].wlan[0].radio transmissionState:vector ETV
attr interpolationmode sample-hold
attr source transmissionStateChanged
attr title "Radio transmission state, vector"
vector 341 FanetGpsrNormal.grayhole[89].wlan[0].radio receptionState:vector ETV
attr interpolationmode sample-hold
attr source receptionStateChanged
attr title "Radio reception state, vector"
vector 342 FanetGpsrNormal.grayhole[89].wlan[0].radio transmissionState:vector ETV
attr interpolationmode sample-hold
attr source transmissionStateChanged
attr title "Radio transmission state, vector"
vector 343 FanetGpsrNormal.grayhole[90].wlan[0].radio receptionState:vector ETV
attr interpolationmode sample-hold
attr source receptionStateChanged
attr title "Radio reception state, vector"
vector 344 FanetGpsrNormal.grayhole[90].wlan[0].radio transmissionState:vector ETV
attr interpolationmode sample-hold
attr source transmissionStateChanged
attr title "Radio transmission state, vector"
vector 345 FanetGpsrNormal.grayhole[91].wlan[0].radio receptionState:vector ETV
attr interpolationmode sample-hold
attr source receptionStateChanged
attr title "Radio reception state, vector"
vector 346 FanetGpsrNormal.grayhole[91].wlan[0].radio transmissionState:vector ETV
attr interpolationmode sample-hold
attr source transmissionStateChanged
attr title "Radio transmission state, vector"
vector 347 FanetGpsrNormal.grayhole[92].wlan[0].radio receptionState:vector ETV
attr interpolationmode sample-hold
attr source receptionStateChanged
attr title "Radio reception state, vector"
vector 348 FanetGpsrNormal.grayhole[92].wlan[0].radio transmissionState:vector ETV
attr interpolationmode sample-hold
attr source transmissionStateChanged
attr title "Radio transmission state, vector"
vector 349 FanetGpsrNormal.grayhole[93].wlan[0].radio receptionState:vector ETV
attr interpolationmode sample-hold
attr source receptionStateChanged
attr title "Radio reception state, vector"
vector 350 FanetGpsrNormal.grayhole[93].wlan[0].radio transmissionState:vector ETV
attr interpolationmode sample-hold
attr source transmissionStateChanged
attr title "Radio transmission state, vector"
vector 351 FanetGpsrNormal.grayhole[94].wlan[0].radio receptionState:vector ETV
attr interpolationmode sample-hold
attr source receptionStateChanged
attr title "Radio reception state, vector"
vector 352 FanetGpsrNormal.grayhole[94].wlan[0].radio transmissionState:vector ETV
attr interpolationmode sample-hold
attr source transmissionStateChanged
attr title "Radio transmission state, vector"
vector 353 FanetGpsrNormal.grayhole[95].wlan[0].radio receptionState:vector ETV
attr interpolationmode sample-hold
attr source receptionStateChanged
attr title "Radio reception state, vector"
vector 354 FanetGpsrNormal.grayhole[95].wlan[0].radio transmissionState:vector ETV
attr interpolationmode sample-hold
attr source transmissionStateChanged
attr title "Radio transmission state, vector"
vector 355 FanetGpsrNormal.grayhole[96].wlan[0].radio receptionState:vector ETV
attr interpolationmode sample-hold
attr source receptionStateChanged
attr title "Radio reception state, vector"
vector 356 FanetGpsrNormal.grayhole[96].wlan[0].radio transmissionState:vector ETV
attr interpolationmode sample-hold
attr source transmissionStateChanged
attr title "Radio transmission state, vector"
vector 357 FanetGpsrNormal.grayhole[97].wlan[0].radio receptionState:vector ETV
attr interpolationmode sample-hold
attr source receptionStateChanged
attr title "Radio reception state, vector"
vector 358 FanetGpsrNormal.grayhole[97].wlan[0].radio transmissionState:vector ETV
attr interpolationmode sample-hold
attr source transmissionStateChanged
attr title "Radio transmission state, vector"
vector 359 FanetGpsrNormal.grayhole[98].wlan[0].radio receptionState:vector ETV
attr interpolationmode sample-hold
attr source receptionStateChanged
attr title "Radio reception state, vector"
vector 360 FanetGpsrNormal.grayhole[98].wlan[0].radio transmissionState:vector ETV
attr interpolationmode sample-hold
attr source transmissionStateChanged
attr title "Radio transmission state, vector"
vector 361 FanetGpsrNormal.grayhole[99].wlan[0].radio receptionState:vector ETV
attr interpolationmode sample-hold
attr source receptionStateChanged
attr title "Radio reception state, vector"
vector 362 FanetGpsrNormal.grayhole[99].wlan[0].radio transmissionState:vector ETV
attr interpolationmode sample-hold
attr source transmissionStateChanged
attr title "Radio transmission state, vector"
vector 363 FanetGpsrNormal.grayhole[82].wlan[0].mac rcvdPkFromHl:vector(packetBytes) ETV
attr interpolationmode none
attr source packetReceivedFromUpper
attr title "packets received from higher layer, vector(packetBytes)"
vector 364 FanetGpsrNormal.grayhole[82].wlan[0].mac.queue packetPushed:vector(packetBytes) ETV
attr interpolationmode none
attr title "packet pushed, vector(packetBytes)"
vector 365 FanetGpsrNormal.grayhole[82].wlan[0].mac.queue queueLength:vector ETV
attr interpolationmode sample-hold
attr source "count(packetPushed) - count(packetPopped) - count(packetRemoved) - count(packetDropped)"
attr title "queue length, vector"
vector 366 FanetGpsrNormal.grayhole[82].wlan[0].mac.queue packetPopped:vector(packetBytes) ETV
attr interpolationmode none
attr title "packet popped, vector(packetBytes)"
vector 367 FanetGpsrNormal.grayhole[82].wlan[0].mac.queue queueingTime:vector ETV
attr interpolationmode none
attr source queueingTime(packetPopped)
attr title "queueing times, vector"
attr unit s
vector 368 FanetGpsrNormal.grayhole[82].wlan[0].mac sentDownPk:vector(packetBytes) ETV
attr interpolationmode none
attr source packetSentToLower
attr title "packets sent to lower layer, vector(packetBytes)"
vector 369 FanetGpsrNormal.grayhole[88].wlan[0].mac rcvdPkFromLl:vector(packetBytes) ETV
attr interpolationmode none
attr source packetReceivedFromLower
attr title "packets received from lower layer, vector(packetBytes)"
vector 370 FanetGpsrNormal.grayhole[88].wlan[0].mac passedUpPk:vector(packetBytes) ETV
attr interpolationmode none
attr source packetSentToUpper
attr title "packets passed to higher layer, vector(packetBytes)"
vector 371 FanetGpsrNormal.grayhole[34].wlan[0].mac rcvdPkFromLl:vector(packetBytes) ETV
attr interpolationmode none
attr source packetReceivedFromLower
attr title "packets received from lower layer, vector(packetBytes)"
vector 372 FanetGpsrNormal.grayhole[34].wlan[0].mac passedUpPk:vector(packetBytes) ETV
attr interpolationmode none
attr source packetSentToUpper
attr title "packets passed to higher layer, vector(packetBytes)"
vector 373 FanetGpsrNormal.grayhole[45].wlan[0].mac rcvdPkFromLl:vector(packetBytes) ETV
attr interpolationmode none
attr source packetReceivedFromLower
attr title "packets received from lower layer, vector(packetBytes)"
vector 374 FanetGpsrNormal.grayhole[45].wlan[0].mac passedUpPk:vector(packetBytes) ETV
attr interpolationmode none
attr source packetSentToUpper
attr title "packets passed to higher layer, vector(packetBytes)"
vector 375 FanetGpsrNormal.host[20].wlan[0].mac rcvdPkFromLl:vector(packetBytes) ETV
attr interpolationmode none
attr source packetReceivedFromLower
attr title "packets received from lower layer, vector(packetBytes)"
vector 376 FanetGpsrNormal.host[20].wlan[0].mac passedUpPk:vector(packetBytes) ETV
attr interpolationmode none
attr source packetSentToUpper
attr title "packets passed to higher layer, vector(packetBytes)"
vector 377 FanetGpsrNormal.grayhole[10].wlan[0].mac rcvdPkFromLl:vector(packetBytes) ETV
attr interpolationmode none
attr source packetReceivedFromLower
attr title "packets received from lower layer, vector(packetBytes)"
vector 378 FanetGpsrNormal.grayhole[10].wlan[0].mac passedUpPk:vector(packetBytes) ETV
attr interpolationmode none
attr source packetSentToUpper
attr title "packets passed to higher layer, vector(packetBytes)"
vector 379 FanetGpsrNormal.grayhole[84].wlan[0].mac rcvdPkFromLl:vector(packetBytes) ETV
attr interpolationmode none
attr source packetReceivedFromLower
attr title "packets received from lower layer, vector(packetBytes)"
vector 380 FanetGpsrNormal.grayhole[84].wlan[0].mac passedUpPk:vector(packetBytes) ETV
attr interpolationmode none
attr source packetSentToUpper
attr title "packets passed to higher layer, vector(packetBytes)"
vector 381 FanetGpsrNormal.grayhole[20].wlan[0].mac rcvdPkFromLl:vector(packetBytes) ETV
attr interpolationmode none
attr source packetReceivedFromLower
attr title "packets received from lower layer, vector(packetBytes)"
vector 382 FanetGpsrNormal.grayhole[20].wlan[0].mac passedUpPk:vector(packetBytes) ETV
attr interpolationmode none
attr source packetSentToUpper
attr title "packets passed to higher layer, vector(packetBytes)"
vector 383 FanetGpsrNormal.grayhole[93].wlan[0].mac rcvdPkFromLl:vector(packetBytes) ETV
attr interpolationmode none
attr source packetReceivedFromLower
attr title "packets received from lower layer, vector(packetBytes)"
vector 384 FanetGpsrNormal.grayhole[93].wlan[0].mac passedUpPk:vector(packetBytes) ETV
attr interpolationmode none
attr source packetSentToUpper
attr title "packets passed to higher layer, vector(packetBytes)"
vector 385 FanetGpsrNormal.grayhole[58].wlan[0].mac rcvdPkFromLl:vector(packetBytes) ETV
attr interpolationmode none
attr source packetReceivedFromLower
attr title "packets received from lower layer, vector(packetBytes)"
vector 386 FanetGpsrNormal.grayhole[58].wlan[0].mac passedUpPk:vector(packetBytes) ETV
attr interpolationmode none
attr source packetSentToUpper
attr title "packets passed to higher layer, vector(packetBytes)"
vector 387 FanetGpsrNormal.host[6].wlan[0].mac rcvdPkFromLl:vector(packetBytes) ETV
attr interpolationmode none
attr source packetReceivedFromLower
attr title "packets received from lower layer, vector(packetBytes)"
vector 388 FanetGpsrNormal.host[6].wlan[0].mac passedUpPk:vector(packetBytes) ETV
attr interpolationmode none
attr source packetSentToUpper
attr title "packets passed to higher layer, vector(packetBytes)"
vector 389 FanetGpsrNormal.grayhole[56].wlan[0].mac rcvdPkFromLl:vector(packetBytes) ETV
attr interpolationmode none
attr source packetReceivedFromLower
attr title "packets received from lower layer, vector(packetBytes)"
vector 390 FanetGpsrNormal.grayhole[56].wlan[0].mac passedUpPk:vector(packetBytes) ETV
attr interpolationmode none
attr source packetSentToUpper
attr title "packets passed to higher layer, vector(packetBytes)"
vector 391 FanetGpsrNormal.grayhole[29].wlan[0].mac rcvdPkFromLl:vector(packetBytes) ETV
attr interpolationmode none
attr source packetReceivedFromLower
attr title "packets received from lower layer, vector(packetBytes)"
vector 392 FanetGpsrNormal.grayhole[29].wlan[0].mac passedUpPk:vector(packetBytes) ETV
attr interpolationmode none
attr source packetSentToUpper
attr title "packets passed to higher layer, vector(packetBytes)"
vector 393 FanetGpsrNormal.grayhole[64].wlan[0].mac rcvdPkFromLl:vector(packetBytes) ETV
attr interpolationmode none
attr source packetReceivedFromLower
attr title "packets received from lower layer, vector(packetBytes)"
[...]
1165	17757342 99 1807158 1888528 46.670093601336 48.811570351244 3 40 40 120 4800
1166	17757441 192 1807158 1888528 46.670093601336 48.811570351244 6 0 1 3 3
1167	17757633 99 1807158 1888528 46.670093601336 48.811570351244 3 40 40 120 4800
1168	17757732 96 1807158 1888528 46.670093601336 48.811570351244 3 0 0 0 0
1169	17757828 99 1807158 1888528 46.670093601336 48.811570351244 3 56 56 168 9408
1170	17757927 99 1788842 1885911 46.174848729045 48.762797430156 3 40 40 120 4800
1171	17758026 99 1788842 1885911 46.174848729045 48.762797430156 3 40 40 120 4800
1172	17758125 192 1788842 1885911 46.174848729045 48.762797430156 6 0 1 3 3
1173	17758317 99 1788842 1885911 46.174848729045 48.762797430156 3 40 40 120 4800
1174	17758416 96 1788842 1885911 46.174848729045 48.762797430156 3 0 0 0 0
1175	17758512 99 1788842 1885911 46.174848729045 48.762797430156 3 56 56 168 9408
1176	17758611 130 1769146 1884370 45.738639492539 48.724849774966 4 40 40 160 6400
1177	17758741 130 1769146 1884370 45.738639492539 48.724849774966 4 40 40 160 6400
1178	17758871 252 1769146 1884370 45.738639492539 48.724849774966 8 0 1 4 4
1179	17759123 130 1769146 1884370 45.738639492539 48.724849774966 4 40 40 160 6400
1180	17759253 126 1769146 1884370 45.738639492539 48.724849774966 4 0 0 0 0
1181	17759379 130 1769146 1884370 45.738639492539 48.724849774966 4 56 56 224 12544
1182	17759509 165 1766910 1903407 45.612452008759 49.117339593821 5 40 40 200 8000
1183	17759674 165 1766910 1903407 45.612452008759 49.117339593821 5 40 40 200 8000
1184	17759839 320 1766910 1903407 45.612452008759 49.117339593821 10 0 1 5 5
1185	17760159 165 1766910 1903407 45.612452008759 49.117339593821 5 40 40 200 8000
1186	17760324 160 1766910 1903407 45.612452008759 49.117339593821 5 0 0 0 0
1187	17760484 165 1766910 1903407 45.612452008759 49.117339593821 5 56 56 280 15680
1188	17760649 132 1764494 1859871 45.533265162957 48.020956909982 4 40 40 160 6400
1189	17760781 132 1764494 1859871 45.533265162957 48.020956909982 4 40 40 160 6400
1190	17760913 256 1764494 1859871 45.533265162957 48.020956909982 8 0 1 4 4
1191	17761169 132 1764494 1859871 45.533265162957 48.020956909982 4 40 40 160 6400
1192	17761301 128 1764494 1859871 45.533265162957 48.020956909982 4 0 0 0 0
1193	17761429 132 1764494 1859871 45.533265162957 48.020956909982 4 56 56 224 12544
1194	17761561 132 1781078 1902169 45.993276239374 49.104605005823 4 40 40 160 6400
1195	17761693 132 1781078 1902169 45.993276239374 49.104605005823 4 40 40 160 6400
1196	17761825 256 1781078 1902169 45.993276239374 49.104605005823 8 0 1 4 4
1197	17762081 132 1781078 1902169 45.993276239374 49.104605005823 4 40 40 160 6400
1198	17762213 128 1781078 1902169 45.993276239374 49.104605005823 4 0 0 0 0
1199	17762341 132 1781078 1902169 45.993276239374 49.104605005823 4 56 56 224 12544
1200	17762473 98 1797049 1886847 46.378653786375 48.79634368885 3 40 40 120 4800
1201	17762571 98 1797049 1886847 46.378653786375 48.79634368885 3 40 40 120 4800
1202	17762669 190 1797049 1886847 46.378653786375 48.79634368885 6 0 1 3 3
1203	17762859 98 1797049 1886847 46.378653786375 48.79634368885 3 40 40 120 4800
1204	17762957 95 1797049 1886847 46.378653786375 48.79634368885 3 0 0 0 0
1205	17763052 98 1797049 1886847 46.378653786375 48.79634368885 3 56 56 168 9408
1206	17763150 132 1788526 1886227 46.135760603704 48.776495082535 4 40 40 160 6400
1207	17763282 132 1788526 1886227 46.135760603704 48.776495082535 4 40 40 160 6400
1208	17763414 256 1788526 1886227 46.135760603704 48.776495082535 8 0 1 4 4
1209	17763670 132 1788526 1886227 46.135760603704 48.776495082535 4 40 40 160 6400
1210	17763802 128 1788526 1886227 46.135760603704 48.776495082535 4 0 0 0 0
1211	17763930 132 1788526 1886227 46.135760603704 48.776495082535 4 56 56 224 12544
1212	17764062 165 1769760 1903088 45.754412234063 49.112699548482 5 40 40 200 8000
1213	17764227 165 1769760 1903088 45.754412234063 49.112699548482 5 40 40 200 8000
1214	17764392 320 1769760 1903088 45.754412234063 49.112699548482 10 0 1 5 5
1215	17764712 165 1769760 1903088 45.754412234063 49.112699548482 5 40 40 200 8000
1216	17764877 160 1769760 1903088 45.754412234063 49.112699548482 5 0 0 0 0
1217	17765037 165 1769760 1903088 45.754412234063 49.112699548482 5 56 56 280 15680
1218	17765202 165 1771004 1889817 45.774302351056 48.839411570225 5 40 40 200 8000
1219	17765367 165 1771004 1889817 45.774302351056 48.839411570225 5 40 40 200 8000
1220	17765532 320 1771004 1889817 45.774302351056 48.839411570225 10 0 1 5 5
1221	17765852 165 1771004 1889817 45.774302351056 48.839411570225 5 40 40 200 8000
1222	17766017 160 1771004 1889817 45.774302351056 48.839411570225 5 0 0 0 0
1223	17766177 165 1771004 1889817 45.774302351056 48.839411570225 5 56 56 280 15680
1224	17766342 99 1799979 1894277 46.490104191236 48.928680935872 3 40 40 120 4800
1225	17766441 99 1799979 1894277 46.490104191236 48.928680935872 3 40 40 120 4800
1226	17766540 192 1799979 1894277 46.490104191236 48.928680935872 6 0 1 3 3
1227	17766732 99 1799979 1894277 46.490104191236 48.928680935872 3 40 40 120 4800
1228	17766831 96 1799979 1894277 46.490104191236 48.928680935872 3 0 0 0 0
1229	17766927 99 1799979 1894277 46.490104191236 48.928680935872 3 56 56 168 9408
1230	17767026 198 1777165 1910566 45.879912507258 49.332015051043 6 40 40 240 9600
1231	17767224 198 1777165 1910566 45.879912507258 49.332015051043 6 40 40 240 9600
1232	17767422 384 1777165 1910566 45.879912507258 49.332015051043 12 0 1 6 6
1233	17767806 198 1777165 1910566 45.879912507258 49.332015051043 6 40 40 240 9600
1234	17768004 192 1777165 1910566 45.879912507258 49.332015051043 6 0 0 0 0
1235	17768196 198 1777165 1910566 45.879912507258 49.332015051043 6 56 56 336 18816
1236	17768394 97 1781368 1886542 45.996429822871 48.7932563615 3 40 40 120 4800
1237	17768491 97 1781368 1886542 45.996429822871 48.7932563615 3 40 40 120 4800
1238	17768588 188 1781368 1886542 45.996429822871 48.7932563615 6 0 1 3 3
1239	17768776 97 1781368 1886542 45.996429822871 48.7932563615 3 40 40 120 4800
1240	17768873 94 1781368 1886542 45.996429822871 48.7932563615 3 0 0 0 0
1241	17768967 97 1781368 1886542 45.996429822871 48.7932563615 3 56 56 168 9408
1242	17769064 132 1783392 1896754 46.053431761219 48.975409732899 4 40 40 160 6400
1243	17769196 132 1783392 1896754 46.053431761219 48.975409732899 4 40 40 160 6400
1244	17769328 256 1783392 1896754 46.053431761219 48.975409732899 8 0 1 4 4
1245	17769584 132 1783392 1896754 46.053431761219 48.975409732899 4 40 40 160 6400
1246	17769716 128 1783392 1896754 46.053431761219 48.975409732899 4 0 0 0 0
1247	17769844 132 1783392 1896754 46.053431761219 48.975409732899 4 56 56 224 12544
1248	17769976 131 1801605 1914779 46.531302978516 49.40989600052 4 40 40 160 6400
1249	17770107 131 1801605 1914779 46.531302978516 49.40989600052 4 40 40 160 6400
1250	17770238 254 1801605 1914779 46.531302978516 49.40989600052 8 0 1 4 4
1251	17770492 131 1801605 1914779 46.531302978516 49.40989600052 4 40 40 160 6400
1252	17770623 127 1801605 1914779 46.531302978516 49.40989600052 4 0 0 0 0
1253	17770750 131 1801605 1914779 46.531302978516 49.40989600052 4 56 56 224 12544
1254	17770881 99 1810202 1906655 46.803836993874 49.251852070914 3 40 40 120 4800
1255	17770980 99 1810202 1906655 46.803836993874 49.251852070914 3 40 40 120 4800
1256	17771079 192 1810202 1906655 46.803836993874 49.251852070914 6 0 1 3 3
1257	17771271 99 1810202 1906655 46.803836993874 49.251852070914 3 40 40 120 4800
1258	17771370 96 1810202 1906655 46.803836993874 49.251852070914 3 0 0 0 0
1259	17771466 99 1810202 1906655 46.803836993874 49.251852070914 3 56 56 168 9408
1260	17771565 132 1767834 1900797 45.628977274057 49.083653008567 4 40 40 160 6400
1261	17771697 132 1767834 1900797 45.628977274057 49.083653008567 4 40 40 160 6400
1262	17771829 256 1767834 1900797 45.628977274057 49.083653008567 8 0 1 4 4
1263	17772085 132 1767834 1900797 45.628977274057 49.083653008567 4 40 40 160 6400
1264	17772217 128 1767834 1900797 45.628977274057 49.083653008567 4 0 0 0 0
1265	17772345 132 1767834 1900797 45.628977274057 49.083653008567 4 56 56 224 12544
1266	17772477 99 1790909 1890140 46.220534978897 48.839625650083 3 40 40 120 4800
1267	17772576 99 1790909 1890140 46.220534978897 48.839625650083 3 40 40 120 4800
1268	17772675 192 1790909 1890140 46.220534978897 48.839625650083 6 0 1 3 3
1269	17772867 99 1790909 1890140 46.220534978897 48.839625650083 3 40 40 120 4800
1270	17772966 96 1790909 1890140 46.220534978897 48.839625650083 3 0 0 0 0
1271	17773062 99 1790909 1890140 46.220534978897 48.839625650083 3 56 56 168 9408
1272	17773161 99 1792738 1898930 46.258679074002 49.039293412817 3 40 40 120 4800
1273	17773260 99 1792738 1898930 46.258679074002 49.039293412817 3 40 40 120 4800
1274	17773359 192 1792738 1898930 46.258679074002 49.039293412817 6 0 1 3 3
1275	17773551 99 1792738 1898930 46.258679074002 49.039293412817 3 40 40 120 4800
1276	17773650 96 1792738 1898930 46.258679074002 49.039293412817 3 0 0 0 0
1277	17773746 99 1792738 1898930 46.258679074002 49.039293412817 3 56 56 168 9408
1278	17773845 132 1777484 1891342 45.894936214901 48.859789346114 4 40 40 160 6400
1279	17773977 132 1777484 1891342 45.894936214901 48.859789346114 4 40 40 160 6400
1280	17774109 256 1777484 1891342 45.894936214901 48.859789346114 8 0 1 4 4
1281	17774365 132 1777484 1891342 45.894936214901 48.859789346114 4 40 40 160 6400
1282	17774497 128 1777484 1891342 45.894936214901 48.859789346114 4 0 0 0 0
1283	17774625 132 1777484 1891342 45.894936214901 48.859789346114 4 56 56 224 12544
1284	17774757 98 1796192 1879045 46.368918601194 48.550113914305 3 40 40 120 4800
1285	17774855 98 1796192 1879045 46.368918601194 48.550113914305 3 40 40 120 4800
1286	17774953 190 1796192 1879045 46.368918601194 48.550113914305 6 0 1 3 3
1287	17775143 98 1796192 1879045 46.368918601194 48.550113914305 3 40 40 120 4800
1288	17775241 95 1796192 1879045 46.368918601194 48.550113914305 3 0 0 0 0
1289	17775336 98 1796192 1879045 46.368918601194 48.550113914305 3 56 56 168 9408
1290	17775434 165 1791797 1902783 46.247212306596 49.111613204004 5 40 40 200 8000
1291	17775599 165 1791797 1902783 46.247212306596 49.111613204004 5 40 40 200 8000
1292	17775764 320 1791797 1902783 46.247212306596 49.111613204004 10 0 1 5 5
1293	17776084 165 1791797 1902783 46.247212306596 49.111613204004 5 40 40 200 8000
1294	17776249 160 1791797 1902783 46.247212306596 49.111613204004 5 0 0 0 0
1295	17776409 165 1791797 1902783 46.247212306596 49.111613204004 5 56 56 280 15680
1296	17776574 132 1775450 1898338 45.861781736837 49.032080602135 4 40 40 160 6400
1297	17776706 132 1775450 1898338 45.861781736837 49.032080602135 4 40 40 160 6400
1298	17776838 256 1775450 1898338 45.861781736837 49.032080602135 8 0 1 4 4
1299	17777094 132 1775450 1898338 45.861781736837 49.032080602135 4 40 40 160 6400
1300	17777226 128 1775450 1898338 45.861781736837 49.032080602135 4 0 0 0 0
1301	17777354 132 1775450 1898338 45.861781736837 49.032080602135 4 56 56 224 12544
1302	17777486 165 1766139 1907927 45.573084076168 49.259540129452 5 40 40 200 8000
1303	17777651 165 1766139 1907927 45.573084076168 49.259540129452 5 40 40 200 8000
1304	17777816 320 1766139 1907927 45.573084076168 49.259540129452 10 0 1 5 5
1305	17778136 165 1766139 1907927 45.573084076168 49.259540129452 5 40 40 200 8000
1306	17778301 160 1766139 1907927 45.573084076168 49.259540129452 5 0 0 0 0
1307	17778461 165 1766139 1907927 45.573084076168 49.259540129452 5 56 56 280 15680
1308	17778626 132 1774205 1876036 45.831257642246 48.461487950756 4 40 40 160 6400
1309	17778758 132 1774205 1876036 45.831257642246 48.461487950756 4 40 40 160 6400
1310	17778890 256 1774205 1876036 45.831257642246 48.461487950756 8 0 1 4 4
1311	17779146 132 1774205 1876036 45.831257642246 48.461487950756 4 40 40 160 6400
1312	17779278 128 1774205 1876036 45.831257642246 48.461487950756 4 0 0 0 0
1313	17779406 132 1774205 1876036 45.831257642246 48.461487950756 4 56 56 224 12544
1314	17779538 131 1791474 1908850 46.245835939188 49.278624949742 4 40 40 160 6400
1315	17779669 131 1791474 1908850 46.245835939188 49.278624949742 4 40 40 160 6400
1316	17779800 254 1791474 1908850 46.245835939188 49.278624949742 8 0 1 4 4
1317	17780054 131 1791474 1908850 46.245835939188 49.278624949742 4 40 40 160 6400
1318	17780185 127 1791474 1908850 46.245835939188 49.278624949742 4 0 0 0 0
1319	17780312 131 1791474 1908850 46.245835939188 49.278624949742 4 56 56 224 12544
1320	17780443 132 1782430 1906361 46.031765277266 49.242263814669 4 40 40 160 6400
1321	17780575 132 1782430 1906361 46.031765277266 49.242263814669 4 40 40 160 6400
1322	17780707 256 1782430 1906361 46.031765277266 49.242263814669 8 0 1 4 4
1323	17780963 132 1782430 1906361 46.031765277266 49.242263814669 4 40 40 160 6400
1324	17781095 128 1782430 1906361 46.031765277266 49.242263814669 4 0 0 0 0
1325	17781223 132 1782430 1906361 46.031765277266 49.242263814669 4 56 56 224 12544
1326	17781355 165 1770077 1905431 45.756062108325 49.206562692067 5 40 40 200 8000
1327	17781520 165 1770077 1905431 45.756062108325 49.206562692067 5 40 40 200 8000
1328	17781685 320 1770077 1905431 45.756062108325 49.206562692067 10 0 1 5 5
1329	17782005 165 1770077 1905431 45.756062108325 49.206562692067 5 40 40 200 8000
1330	17782170 160 1770077 1905431 45.756062108325 49.206562692067 5 0 0 0 0
1331	17782330 165 1770077 1905431 45.756062108325 49.206562692067 5 56 56 280 15680
1332	17782495 131 1808204 1891051 46.723435943714 48.856295196805 4 40 40 160 6400
1333	17782626 131 1808204 1891051 46.723435943714 48.856295196805 4 40 40 160 6400
1334	17782757 254 1808204 1891051 46.723435943714 48.856295196805 8 0 1 4 4
1335	17783011 131 1808204 1891051 46.723435943714 48.856295196805 4 40 40 160 6400
1336	17783142 127 1808204 1891051 46.723435943714 48.856295196805 4 0 0 0 0
1337	17783269 131 1808204 1891051 46.723435943714 48.856295196805 4 56 56 224 12544
1338	17783400 99 1778211 1876341 45.919572489101 48.463578505673 3 40 40 120 4800
1339	17783499 99 1778211 1876341 45.919572489101 48.463578505673 3 40 40 120 4800
1340	17783598 192 1778211 1876341 45.919572489101 48.463578505673 6 0 1 3 3
1341	17783790 99 1778211 1876341 45.919572489101 48.463578505673 3 40 40 120 4800
1342	17783889 96 1778211 1876341 45.919572489101 48.463578505673 3 0 0 0 0
1343	17783985 99 1778211 1876341 45.919572489101 48.463578505673 3 56 56 168 9408
1344	17784084 132 1763576 1894883 45.524947494967 48.939120062161 4 40 40 160 6400
1345	17784216 132 1763576 1894883 45.524947494967 48.939120062161 4 40 40 160 6400
1346	17784348 256 1763576 1894883 45.524947494967 48.939120062161 8 0 1 4 4
1347	17784604 132 1763576 1894883 45.524947494967 48.939120062161 4 40 40 160 6400
1348	17784736 128 1763576 1894883 45.524947494967 48.939120062161 4 0 0 0 0
1349	17784864 132 1763576 1894883 45.524947494967 48.939120062161 4 56 56 224 12544
1350	17784996 131 1770702 1911845 45.771912484429 49.344536592951 4 40 40 160 6400
1351	17785127 131 1770702 1911845 45.771912484429 49.344536592951 4 40 40 160 6400
1352	17785258 254 1770702 1911845 45.771912484429 49.344536592951 8 0 1 4 4
1353	17785512 131 1770702 1911845 45.771912484429 49.344536592951 4 40 40 160 6400
1354	17785643 127 1770702 1911845 45.771912484429 49.344536592951 4 0 0 0 0
1355	17785770 131 1770702 1911845 45.771912484429 49.344536592951 4 56 56 224 12544
1356	17785901 130 1784626 1888823 46.076196646317 48.81696373946 4 40 40 160 6400
1357	17786031 130 1784626 1888823 46.076196646317 48.81696373946 4 40 40 160 6400
1358	17786161 252 1784626 1888823 46.076196646317 48.81696373946 8 0 1 4 4
1359	17786413 130 1784626 1888823 46.076196646317 48.81696373946 4 40 40 160 6400
1360	17786543 126 1784626 1888823 46.076196646317 48.81696373946 4 0 0 0 0
1361	17786669 130 1784626 1888823 46.076196646317 48.81696373946 4 56 56 224 12544
1362	17786799 165 1765828 1899555 45.570479310353 49.056805440227 5 40 40 200 8000
1363	17786964 165 1765828 1899555 45.570479310353 49.056805440227 5 40 40 200 8000
1364	17787129 320 1765828 1899555 45.570479310353 49.056805440227 10 0 1 5 5
1365	17787449 165 1765828 1899555 45.570479310353 49.056805440227 5 40 40 200 8000
1366	17787614 160 1765828 1899555 45.570479310353 49.056805440227 5 0 0 0 0
1367	17787774 165 1765828 1899555 45.570479310353 49.056805440227 5 56 56 280 15680
1368	17787939 98 1770376 1878389 45.768240681854 48.525834196252 3 40 40 120 4800
1369	17788037 98 1770376 1878389 45.768240681854 48.525834196252 3 40 40 120 4800
1370	17788135 190 1770376 1878389 45.768240681854 48.525834196252 6 0 1 3 3
1371	17788325 98 1770376 1878389 45.768240681854 48.525834196252 3 40 40 120 4800
1372	17788423 95 1770376 1878389 45.768240681854 48.525834196252 3 0 0 0 0
1373	17788518 98 1770376 1878389 45.768240681854 48.525834196252 3 56 56 168 9408
1374	17788616 132 1776573 1893221 45.865449785955 48.889582401144 4 40 40 160 6400
1375	17788748 132 1776573 1893221 45.865449785955 48.889582401144 4 40 40 160 6400
1376	17788880 256 1776573 1893221 45.865449785955 48.889582401144 8 0 1 4 4
1377	17789136 132 1776573 1893221 45.865449785955 48.889582401144 4 40 40 160 6400
1378	17789268 128 1776573 1893221 45.865449785955 48.889582401144 4 0 0 0 0
1379	17789396 132 1776573 1893221 45.865449785955 48.889582401144 4 56 56 224 12544
1380	17789528 130 1786822 1902459 46.094480404398 49.106883232249 4 40 40 160 6400
1381	17789658 130 1786822 1902459 46.094480404398 49.106883232249 4 40 40 160 6400
1382	17789788 252 1786822 1902459 46.094480404398 49.106883232249 8 0 1 4 4
1383	17790040 130 1786822 1902459 46.094480404398 49.106883232249 4 40 40 160 6400
1384	17790170 126 1786822 1902459 46.094480404398 49.106883232249 4 0 0 0 0
1385	17790296 130 1786822 1902459 46.094480404398 49.106883232249 4 56 56 224 12544
1386	17790426 66 1812042 1864383 46.865768400486 48.149469748372 2 40 40 80 3200
1387	17790492 66 1812042 1864383 46.865768400486 48.149469748372 2 40 40 80 3200
1388	17790558 128 1812042 1864383 46.865768400486 48.149469748372 4 0 1 2 2
1389	17790686 66 1812042 1864383 46.865768400486 48.149469748372 2 40 40 80 3200
1390	17790752 64 1812042 1864383 46.865768400486 48.149469748372 2 0 0 0 0
1391	17790816 66 1812042 1864383 46.865768400486 48.149469748372 2 56 56 112 6272
1392	17790882 70 1763085 1776135 45.498968732451 45.863492943332 2 1084 1084 2168 2350112
1395	17790952 69 1763077 1776127 45.498968659749 45.86349287063 2 1084 1084 2168 2350112
1406	17791021 70 1763081 1776131 45.498968669008 45.863492879889 2 1084 1084 2168 2350112
1409	17791091 70 1763083 1776133 45.498968698478 45.863492909359 2 1084 1084 2168 2350112
1412	17791161 70 1763096 1776146 45.498968779417 45.863492990298 2 1084 1084 2168 2350112
1413	17791231 70 1763098 1776148 45.498968807257 45.863493018138 2 1084 1084 2168 2350112
1425	17791301 33 1771267 1771267 45.774325923091 45.774325923091 1 56 56 56 3136
1426	17791334 31 1771207 1771207 45.7743256101 45.7743256101 1 56 56 56 3136
1427	17791365 33 1771272 1771272 45.774325982307 45.774325982307 1 56 56 56 3136
1439	17791398 70 1763073 1776123 45.498968630474 45.863492841355 2 1084 1084 2168 2350112
1446	17791468 70 1763100 1776150 45.498968810018 45.863493020899 2 1084 1084 2168 2350112
1461	17791538 33 1771204 1771204 45.774325600755 45.774325600755 1 56 56 56 3136
1462	17791571 33 1771217 1771217 45.774325711039 45.774325711039 1 56 56 56 3136
vector 1463 FanetGpsrNormal.host[0].app[0] throughput:vector ETV
attr source throughput(packetReceived)
attr title "throughput, vector"
attr unit bps
1118	17791758 784 1916672 1916672 45.9 49.448014620677 37 0 80000 80000 6400000000
1463	17792542 10209 1916672 1916672 0.1 49.448014620677 495 0 0 0 0

