file 25038362 1626022654                                        
version 2
run _3D_Mass-0-20210420-21:23:57-11232
attr configname _3D_Mass
attr datetime 20210420-21:23:57
attr experiment _3D_Mass
attr inifile omnetpp.ini
attr iterationvars ""
attr iterationvarsf ""
attr measurement ""
attr network FanetGpsr
attr processid 11232
attr repetition 0
attr replication #0
attr resultdir results
attr runnumber 0
attr seedset 0
param *.visualizer.osgVisualizer.typename "\"IntegratedOsgVisualizer\""
param *.visualizer.osgVisualizer.sceneVisualizer.clearColor "\"skyblue\""
param *.visualizer.osgVisualizer.sceneVisualizer.sceneImage "\"showcases/desert\""
param *.visualizer.osgVisualizer.sceneVisualizer.sceneImageSize 5000m
param *.visualizer.osgVisualizer.sceneVisualizer.axisLength 1000m
param *.visualizer.osgVisualizer.sceneVisualizer.sceneMinX -2000m
param *.visualizer.osgVisualizer.sceneVisualizer.sceneMinY -2000m
param *.visualizer.osgVisualizer.sceneVisualizer.sceneMinZ 0m
param *.visualizer.osgVisualizer.sceneVisualizer.sceneMaxX 3000m
param *.visualizer.osgVisualizer.sceneVisualizer.sceneMaxY 3000m
param *.visualizer.osgVisualizer.sceneVisualizer.sceneMaxZ 1000m
param *.visualizer.osgVisualizer.networkNodeVisualizer.displayModuleName false
param *.visualizer.*.mobilityVisualizer.displayMobility true
param *.visualizer.*.mobilityVisualizer.displayPositions true
param *.visualizer.*.mobilityVisualizer.displayOrientations true
param *.visualizer.*.mobilityVisualizer.displayVelocities true
param *.visualizer.*.mobilityVisualizer.displayMovementTrails true
param *.visualizer.*.mobilityVisualizer.animationSpeed 1
param **.constraintAreaMinX 0m
param **.constraintAreaMinY 0m
param **.constraintAreaMinZ 200m
param **.constraintAreaMaxX 1500m
param **.constraintAreaMaxY 500m
param **.constraintAreaMaxZ 400m
param *.numHosts 50
param *.host[*].osgModel "\"3d/drone.ive.100.scale.0,0,90.rot\""
param *.host[*].mobility.typename "\"MassMobility\""
param *.host[*].mobility.changeInterval 1s
param *.host[*].mobility.initialMovementHeading "uniform(0deg, 360deg)"
param *.host[*].mobility.initialMovementElevation "uniform(-90deg, 90deg)"
param *.host[*].mobility.angleDelta uniform(-10deg,10deg)
param *.host[*].mobility.rotationAxisAngle uniform(-10deg,10deg)
param *.host[*].mobility.speed uniform(10mps,20mps)
param *.host[*].mobility.faceForward false
param *.host[0].numApps 1
param *.host[0].app[0].typename "\"PingApp\""
param *.host[0].app[0].destAddr "\"host[20]\""
param *.host[0].app[0].printPing true
param **.wlan[*].bitrate 24Mbps
param *.configurator.addStaticRoutes false
param **.netmaskRoutes "\"\""
param **.arp.typename "\"GlobalArp\""
param **.planarizationMode "\"RNG\""
param **.beaconInterval 1s
param *.host*.wlan[0].typename "\"AckingWirelessInterface\""
param *.host*.wlan[0].radio.transmitter.communicationRange 300m

vector 0 FanetGpsr.host[0].wlan[0].radio radioMode:vector ETV
attr interpolationmode sample-hold
attr source radioModeChanged
attr title "Radio mode, vector"
0	133883 24 0 0 0 0 3 0 4 4 16
vector 1 FanetGpsr.host[1].wlan[0].radio radioMode:vector ETV
attr interpolationmode sample-hold
attr source radioModeChanged
attr title "Radio mode, vector"
1	133907 24 0 0 0 0 3 0 4 4 16
vector 2 FanetGpsr.host[2].wlan[0].radio radioMode:vector ETV
attr interpolationmode sample-hold
attr source radioModeChanged
attr title "Radio mode, vector"
2	133931 24 0 0 0 0 3 0 4 4 16
vector 3 FanetGpsr.host[3].wlan[0].radio radioMode:vector ETV
attr interpolationmode sample-hold
attr source radioModeChanged
attr title "Radio mode, vector"
3	133955 24 0 0 0 0 3 0 4 4 16
vector 4 FanetGpsr.host[4].wlan[0].radio radioMode:vector ETV
attr interpolationmode sample-hold
attr source radioModeChanged
attr title "Radio mode, vector"
4	133979 24 0 0 0 0 3 0 4 4 16
vector 5 FanetGpsr.host[5].wlan[0].radio radioMode:vector ETV
attr interpolationmode sample-hold
attr source radioModeChanged
attr title "Radio mode, vector"
5	134003 24 0 0 0 0 3 0 4 4 16
vector 6 FanetGpsr.host[6].wlan[0].radio radioMode:vector ETV
attr interpolationmode sample-hold
attr source radioModeChanged
attr title "Radio mode, vector"
6	134027 24 0 0 0 0 3 0 4 4 16
vector 7 FanetGpsr.host[7].wlan[0].radio radioMode:vector ETV
attr interpolationmode sample-hold
attr source radioModeChanged
attr title "Radio mode, vector"
7	134051 24 0 0 0 0 3 0 4 4 16
vector 8 FanetGpsr.host[8].wlan[0].radio radioMode:vector ETV
attr interpolationmode sample-hold
attr source radioModeChanged
attr title "Radio mode, vector"
8	134075 24 0 0 0 0 3 0 4 4 16
vector 9 FanetGpsr.host[9].wlan[0].radio radioMode:vector ETV
attr interpolationmode sample-hold
attr source radioModeChanged
attr title "Radio mode, vector"
9	134099 24 0 0 0 0 3 0 4 4 16
vector 10 FanetGpsr.host[10].wlan[0].radio radioMode:vector ETV
attr interpolationmode sample-hold
attr source radioModeChanged
attr title "Radio mode, vector"
10	134123 27 0 0 0 0 3 0 4 4 16
vector 11 FanetGpsr.host[11].wlan[0].radio radioMode:vector ETV
attr interpolationmode sample-hold
attr source radioModeChanged
attr title "Radio mode, vector"
11	134150 27 0 0 0 0 3 0 4 4 16
vector 12 FanetGpsr.host[12].wlan[0].radio radioMode:vector ETV
attr interpolationmode sample-hold
attr source radioModeChanged
attr title "Radio mode, vector"
12	134177 27 0 0 0 0 3 0 4 4 16
vector 13 FanetGpsr.host[13].wlan[0].radio radioMode:vector ETV
attr interpolationmode sample-hold
attr source radioModeChanged
attr title "Radio mode, vector"
13	134204 27 0 0 0 0 3 0 4 4 16
vector 14 FanetGpsr.host[14].wlan[0].radio radioMode:vector ETV
attr interpolationmode sample-hold
attr source radioModeChanged
attr title "Radio mode, vector"
14	134231 27 0 0 0 0 3 0 4 4 16
vector 15 FanetGpsr.host[15].wlan[0].radio radioMode:vector ETV
attr interpolationmode sample-hold
attr source radioModeChanged
attr title "Radio mode, vector"
15	134258 27 0 0 0 0 3 0 4 4 16
vector 16 FanetGpsr.host[16].wlan[0].radio radioMode:vector ETV
attr interpolationmode sample-hold
attr source radioModeChanged
attr title "Radio mode, vector"
16	134285 27 0 0 0 0 3 0 4 4 16
vector 17 FanetGpsr.host[17].wlan[0].radio radioMode:vector ETV
attr interpolationmode sample-hold
attr source radioModeChanged
attr title "Radio mode, vector"
17	134312 27 0 0 0 0 3 0 4 4 16
vector 18 FanetGpsr.host[18].wlan[0].radio radioMode:vector ETV
attr interpolationmode sample-hold
attr source radioModeChanged
attr title "Radio mode, vector"
18	134339 27 0 0 0 0 3 0 4 4 16
vector 19 FanetGpsr.host[19].wlan[0].radio radioMode:vector ETV
attr interpolationmode sample-hold
attr source radioModeChanged
attr title "Radio mode, vector"
19	134366 27 0 0 0 0 3 0 4 4 16
vector 20 FanetGpsr.host[20].wlan[0].radio radioMode:vector ETV
attr interpolationmode sample-hold
attr source radioModeChanged
attr title "Radio mode, vector"
20	134393 27 0 0 0 0 3 0 4 4 16
vector 21 FanetGpsr.host[21].wlan[0].radio radioMode:vector ETV
attr interpolationmode sample-hold
attr source radioModeChanged
attr title "Radio mode, vector"
21	134420 27 0 0 0 0 3 0 4 4 16
vector 22 FanetGpsr.host[22].wlan[0].radio radioMode:vector ETV
attr interpolationmode sample-hold
attr source radioModeChanged
attr title "Radio mode, vector"
22	134447 27 0 0 0 0 3 0 4 4 16
vector 23 FanetGpsr.host[23].wlan[0].radio radioMode:vector ETV
attr interpolationmode sample-hold
attr source radioModeChanged
attr title "Radio mode, vector"
23	134474 27 0 0 0 0 3 0 4 4 16
vector 24 FanetGpsr.host[24].wlan[0].radio radioMode:vector ETV
attr interpolationmode sample-hold
attr source radioModeChanged
attr title "Radio mode, vector"
24	134501 27 0 0 0 0 3 0 4 4 16
vector 25 FanetGpsr.host[25].wlan[0].radio radioMode:vector ETV
attr interpolationmode sample-hold
attr source radioModeChanged
attr title "Radio mode, vector"
25	134528 27 0 0 0 0 3 0 4 4 16
vector 26 FanetGpsr.host[26].wlan[0].radio radioMode:vector ETV
attr interpolationmode sample-hold
attr source radioModeChanged
attr title "Radio mode, vector"
26	134555 27 0 0 0 0 3 0 4 4 16
vector 27 FanetGpsr.host[27].wlan[0].radio radioMode:vector ETV
attr interpolationmode sample-hold
attr source radioModeChanged
attr title "Radio mode, vector"
27	134582 27 0 0 0 0 3 0 4 4 16
vector 28 FanetGpsr.host[28].wlan[0].radio radioMode:vector ETV
attr interpolationmode sample-hold
attr source radioModeChanged
attr title "Radio mode, vector"
28	134609 27 0 0 0 0 3 0 4 4 16
vector 29 FanetGpsr.host[29].wlan[0].radio radioMode:vector ETV
attr interpolationmode sample-hold
attr source radioModeChanged
attr title "Radio mode, vector"
29	134636 27 0 0 0 0 3 0 4 4 16
vector 30 FanetGpsr.host[30].wlan[0].radio radioMode:vector ETV
attr interpolationmode sample-hold
attr source radioModeChanged
attr title "Radio mode, vector"
30	134663 27 0 0 0 0 3 0 4 4 16
vector 31 FanetGpsr.host[31].wlan[0].radio radioMode:vector ETV
attr interpolationmode sample-hold
attr source radioModeChanged
attr title "Radio mode, vector"
31	134690 27 0 0 0 0 3 0 4 4 16
vector 32 FanetGpsr.host[32].wlan[0].radio radioMode:vector ETV
attr interpolationmode sample-hold
attr source radioModeChanged
attr title "Radio mode, vector"
32	134717 27 0 0 0 0 3 0 4 4 16
vector 33 FanetGpsr.host[33].wlan[0].radio radioMode:vector ETV
attr interpolationmode sample-hold
attr source radioModeChanged
attr title "Radio mode, vector"
33	134744 27 0 0 0 0 3 0 4 4 16
vector 34 FanetGpsr.host[34].wlan[0].radio radioMode:vector ETV
attr interpolationmode sample-hold
attr source radioModeChanged
attr title "Radio mode, vector"
34	134771 27 0 0 0 0 3 0 4 4 16
vector 35 FanetGpsr.host[35].wlan[0].radio radioMode:vector ETV
attr interpolationmode sample-hold
attr source radioModeChanged
attr title "Radio mode, vector"
35	134798 27 0 0 0 0 3 0 4 4 16
vector 36 FanetGpsr.host[36].wlan[0].radio radioMode:vector ETV
attr interpolationmode sample-hold
attr source radioModeChanged
attr title "Radio mode, vector"
36	134825 27 0 0 0 0 3 0 4 4 16
vector 37 FanetGpsr.host[37].wlan[0].radio radioMode:vector ETV
attr interpolationmode sample-hold
attr source radioModeChanged
attr title "Radio mode, vector"
37	134852 27 0 0 0 0 3 0 4 4 16
vector 38 FanetGpsr.host[38].wlan[0].radio radioMode:vector ETV
attr interpolationmode sample-hold
attr source radioModeChanged
attr title "Radio mode, vector"
38	134879 27 0 0 0 0 3 0 4 4 16
vector 39 FanetGpsr.host[39].wlan[0].radio radioMode:vector ETV
attr interpolationmode sample-hold
attr source radioModeChanged
attr title "Radio mode, vector"
39	134906 27 0 0 0 0 3 0 4 4 16
vector 40 FanetGpsr.host[40].wlan[0].radio radioMode:vector ETV
attr interpolationmode sample-hold
attr source radioModeChanged
attr title "Radio mode, vector"
40	134933 27 0 0 0 0 3 0 4 4 16
vector 41 FanetGpsr.host[41].wlan[0].radio radioMode:vector ETV
attr interpolationmode sample-hold
attr source radioModeChanged
attr title "Radio mode, vector"
41	134960 27 0 0 0 0 3 0 4 4 16
vector 42 FanetGpsr.host[42].wlan[0].radio radioMode:vector ETV
attr interpolationmode sample-hold
attr source radioModeChanged
attr title "Radio mode, vector"
42	134987 27 0 0 0 0 3 0 4 4 16
vector 43 FanetGpsr.host[43].wlan[0].radio radioMode:vector ETV
attr interpolationmode sample-hold
attr source radioModeChanged
attr title "Radio mode, vector"
43	135014 27 0 0 0 0 3 0 4 4 16
vector 44 FanetGpsr.host[44].wlan[0].radio radioMode:vector ETV
attr interpolationmode sample-hold
attr source radioModeChanged
attr title "Radio mode, vector"
44	135041 27 0 0 0 0 3 0 4 4 16
vector 45 FanetGpsr.host[45].wlan[0].radio radioMode:vector ETV
attr interpolationmode sample-hold
attr source radioModeChanged
attr title "Radio mode, vector"
45	135068 27 0 0 0 0 3 0 4 4 16
vector 46 FanetGpsr.host[46].wlan[0].radio radioMode:vector ETV
attr interpolationmode sample-hold
attr source radioModeChanged
attr title "Radio mode, vector"
46	135095 27 0 0 0 0 3 0 4 4 16
vector 47 FanetGpsr.host[47].wlan[0].radio radioMode:vector ETV
attr interpolationmode sample-hold
attr source radioModeChanged
attr title "Radio mode, vector"
47	135122 27 0 0 0 0 3 0 4 4 16
vector 48 FanetGpsr.host[48].wlan[0].radio radioMode:vector ETV
attr interpolationmode sample-hold
attr source radioModeChanged
attr title "Radio mode, vector"
48	135149 27 0 0 0 0 3 0 4 4 16
vector 49 FanetGpsr.host[49].wlan[0].radio radioMode:vector ETV
attr interpolationmode sample-hold
attr source radioModeChanged
attr title "Radio mode, vector"
49	135176 27 0 0 0 0 3 0 4 4 16
vector 50 FanetGpsr.host[0].wlan[0].radio receptionState:vector ETV
attr interpolationmode sample-hold
attr source receptionStateChanged
attr title "Radio reception state, vector"
50	135203 116745 0 785286 0 71.983324188475 4254 1 3 8507 21263
50	15218284 77455 786574 1552856 72.156143080334 165.720161222417 2634 1 3 5268 13170
vector 51 FanetGpsr.host[0].wlan[0].radio transmissionState:vector ETV
attr interpolationmode sample-hold
attr source transmissionStateChanged
attr title "Radio transmission state, vector"
51	251948 8153 0 783179 0 71.857996286516 295 1 2 442 736
51	15295739 10798 787226 1548856 72.189803668996 165.174344097867 368 1 2 552 920
vector 52 FanetGpsr.host[1].wlan[0].radio receptionState:vector ETV
attr interpolationmode sample-hold
attr source receptionStateChanged
attr title "Radio reception state, vector"
52	260101 153991 0 785004 0 71.922675137482 5593 1 3 11185 27959
52	15306537 98058 786399 1554330 72.118954875409 165.826380330461 3350 1 3 6700 16750
vector 53 FanetGpsr.host[1].wlan[0].radio transmissionState:vector ETV
attr interpolationmode sample-hold
attr source transmissionStateChanged
attr title "Radio transmission state, vector"
53	414092 4098 0 778488 0 71.248250344208 149 1 2 223 371
53	15404595 5698 786086 1550505 72.114888967946 165.447423988623 194 1 2 291 485
vector 54 FanetGpsr.host[2].wlan[0].radio receptionState:vector ETV
attr interpolationmode sample-hold
attr source receptionStateChanged
attr title "Radio reception state, vector"
54	418190 152302 0 785020 0 71.922675225274 5533 1 3 11065 27659
54	15410293 116573 785353 1554370 71.990293688624 165.826380890829 3992 1 3 7984 19960
vector 55 FanetGpsr.host[2].wlan[0].radio transmissionState:vector ETV
attr interpolationmode sample-hold
attr source transmissionStateChanged
attr title "Radio transmission state, vector"
55	570492 3887 0 780679 0 71.385677513804 141 1 2 211 351
55	15526866 5448 790202 1551624 72.596590896136 165.607605602498 186 1 2 279 465
vector 56 FanetGpsr.host[3].wlan[0].radio receptionState:vector ETV
attr interpolationmode sample-hold
attr source receptionStateChanged
attr title "Radio reception state, vector"
56	574379 153062 0 784980 0 71.922675046162 5560 1 3 11119 27793
56	15532314 114723 786087 1554350 72.114889185177 165.826380735564 3912 1 3 7824 19560
vector 57 FanetGpsr.host[3].wlan[0].radio transmissionState:vector ETV
attr interpolationmode sample-hold
attr source transmissionStateChanged
attr title "Radio transmission state, vector"
57	727441 3991 0 776703 0 71.036729448613 145 1 2 217 361
57	15647037 5329 786397 1549875 72.118954658043 165.335191531475 182 1 2 273 455
vector 58 FanetGpsr.host[4].wlan[0].radio receptionState:vector ETV
attr interpolationmode sample-hold
attr source receptionStateChanged
attr title "Radio reception state, vector"
58	731432 104289 0 785270 0 71.983323997925 3811 1 3 7621 19049
58	15652366 54901 786578 1554196 72.156143598059 165.810470052384 1874 1 3 3748 9370
vector 59 FanetGpsr.host[4].wlan[0].radio transmissionState:vector ETV
attr interpolationmode sample-hold
attr source transmissionStateChanged
attr title "Radio transmission state, vector"
59	835721 3947 0 782698 0 71.769995086732 143 1 2 214 356
59	15707267 5463 790433 1545649 72.601786267013 164.800819438085 186 1 2 279 465
vector 60 FanetGpsr.host[5].wlan[0].radio receptionState:vector ETV
attr interpolationmode sample-hold
attr source receptionStateChanged
attr title "Radio reception state, vector"
60	839668 147681 0 784518 0 71.882764125387 5366 1 3 10731 26825
60	15712730 80609 786097 1552904 72.114889763086 165.720161616943 2744 1 3 5488 13720
vector 61 FanetGpsr.host[5].wlan[0].radio transmissionState:vector ETV
attr interpolationmode sample-hold
attr source transmissionStateChanged
attr title "Radio transmission state, vector"
61	987349 4263 0 784939 0 71.92267434592 155 1 2 232 386
61	15793339 5505 791734 1551922 72.745970271293 165.65693187308 188 1 2 282 470
vector 62 FanetGpsr.host[6].wlan[0].radio receptionState:vector ETV
attr interpolationmode sample-hold
attr source receptionStateChanged
attr title "Radio reception state, vector"
62	991612 140651 0 785036 0 71.922675324876 5116 1 3 10231 25573
62	15798844 53790 785345 1553868 71.99029325447 165.774268145366 1859 1 3 3718 9294
vector 63 FanetGpsr.host[6].wlan[0].radio transmissionState:vector ETV
attr interpolationmode sample-hold
attr source transmissionStateChanged
attr title "Radio transmission state, vector"
63	1132263 3820 0 784171 0 71.870281965604 139 1 2 208 346
63	15852634 5504 793614 1551299 72.945465090679 165.534869472629 188 1 2 282 470
vector 64 FanetGpsr.host[7].wlan[0].radio receptionState:vector ETV
attr interpolationmode sample-hold
attr source receptionStateChanged
attr title "Radio reception state, vector"
64	1136083 112196 0 784192 0 71.870282477216 4095 1 3 8189 20469
64	15858138 64063 785343 1554009 71.990293187062 165.780408030918 2193 1 3 4386 10964
vector 65 FanetGpsr.host[7].wlan[0].radio transmissionState:vector ETV
attr interpolationmode sample-hold
attr source transmissionStateChanged
attr title "Radio transmission state, vector"
65	1248279 3873 0 775943 0 70.929891805069 141 1 2 211 351
65	15922201 5509 787602 1553729 72.216046698623 165.766838020548 188 1 2 282 470
vector 66 FanetGpsr.host[8].wlan[0].radio receptionState:vector ETV
attr interpolationmode sample-hold
attr source receptionStateChanged
attr title "Radio reception state, vector"
66	1252152 101907 0 785266 0 71.983323944132 3725 1 3 7449 18619
66	15927710 60558 788081 1554394 72.271808933892 165.826381129 2046 1 3 4092 10230
vector 67 FanetGpsr.host[8].wlan[0].radio transmissionState:vector ETV
attr interpolationmode sample-hold
attr source transmissionStateChanged
attr title "Radio transmission state, vector"
67	1354059 3928 0 781999 0 71.6999678506 143 1 2 214 356
67	15988268 5752 790731 1549529 72.634885241274 165.301687410704 196 1 2 294 490
vector 68 FanetGpsr.host[9].wlan[0].radio receptionState:vector ETV
attr interpolationmode sample-hold
attr source receptionStateChanged
attr title "Radio reception state, vector"
68	1357987 135863 0 785008 0 71.922675159252 4941 1 3 9881 24699
68	15994020 100315 785348 1554358 71.990293577562 165.826380762619 3438 1 3 6876 17190
vector 69 FanetGpsr.host[9].wlan[0].radio transmissionState:vector ETV
attr interpolationmode sample-hold
attr source transmissionStateChanged
attr title "Radio transmission state, vector"
69	1493850 4171 0 782174 0 71.738668676136 153 1 2 229 381
69	16094335 6171 795916 1550165 73.200923578346 165.386792570025 210 1 2 315 525
vector 70 FanetGpsr.host[10].wlan[0].radio receptionState:vector ETV
attr interpolationmode sample-hold
attr source receptionStateChanged
attr title "Radio reception state, vector"
70	1498021 139546 0 784180 0 71.870282256991 5074 1 3 10147 25365
70	16100506 42691 785342 1553766 71.990293142288 165.76683899185 1481 1 3 2962 7404
vector 71 FanetGpsr.host[10].wlan[0].radio transmissionState:vector ETV
attr interpolationmode sample-hold
attr source transmissionStateChanged
attr title "Radio transmission state, vector"
71	1637567 4052 0 779986 0 71.353505481869 147 1 2 220 366
71	16143197 5861 787907 1553867 72.261660962596 165.774267634284 200 1 2 300 500
vector 72 FanetGpsr.host[11].wlan[0].radio receptionState:vector ETV
attr interpolationmode sample-hold
attr source receptionStateChanged
attr title "Radio reception state, vector"
72	1641619 128997 0 785290 0 71.983324223601 4696 1 3 9391 23475
72	16149058 44039 786104 1554192 72.11488988302 165.810469985198 1504 1 3 3008 7520
vector 73 FanetGpsr.host[11].wlan[0].radio transmissionState:vector ETV
attr interpolationmode sample-hold
attr source transmissionStateChanged
attr title "Radio transmission state, vector"
73	1770616 4099 0 779072 0 71.311922127749 149 1 2 223 371
73	16193097 5751 786572 1547916 72.156142929333 165.046357632516 196 1 2 294 490
vector 74 FanetGpsr.host[12].wlan[0].radio receptionState:vector ETV
attr interpolationmode sample-hold
attr source receptionStateChanged
attr title "Radio reception state, vector"
74	1774715 154592 0 784948 0 71.922674800036 5615 1 3 11229 28069
74	16198848 85562 785525 1553041 71.994543561489 165.722681454128 2932 1 3 5864 14660
vector 75 FanetGpsr.host[12].wlan[0].radio transmissionState:vector ETV
attr interpolationmode sample-hold
attr source transmissionStateChanged
attr title "Radio transmission state, vector"
75	1929307 4212 0 778665 0 71.294143102037 153 1 2 229 381
75	16284410 5933 788966 1547153 72.456246347632 164.9740341051 202 1 2 303 505
vector 76 FanetGpsr.host[13].wlan[0].radio receptionState:vector ETV
attr interpolationmode sample-hold
attr source receptionStateChanged
attr title "Radio reception state, vector"
76	1933519 150581 0 785028 0 71.922675269524 5471 1 3 10941 27349
76	16290343 110426 786094 1554354 72.114889584747 165.826380757947 3768 1 3 7536 18840
vector 77 FanetGpsr.host[13].wlan[0].radio transmissionState:vector ETV
attr interpolationmode sample-hold
attr source transmissionStateChanged
attr title "Radio transmission state, vector"
77	2084100 4540 0 783676 0 71.858202445726 165 1 2 247 411
77	16400769 5698 787747 1549706 72.222679306289 165.33346720496 194 1 2 291 485
vector 78 FanetGpsr.host[14].wlan[0].radio receptionState:vector ETV
attr interpolationmode sample-hold
attr source receptionStateChanged
attr title "Radio reception state, vector"
78	2088640 113778 0 785254 0 71.983323842785 4151 1 3 8301 20749
78	16406467 52867 790070 1554382 72.580333855175 165.826381064288 1792 1 3 3584 8960
vector 79 FanetGpsr.host[14].wlan[0].radio transmissionState:vector ETV
attr interpolationmode sample-hold
attr source transmissionStateChanged
attr title "Radio transmission state, vector"
79	2202418 4044 0 781627 0 71.594388473452 147 1 2 220 366
79	16459334 5635 788080 1551766 72.271808813792 165.610427694535 192 1 2 288 480
vector 80 FanetGpsr.host[15].wlan[0].radio receptionState:vector ETV
attr interpolationmode sample-hold
attr source receptionStateChanged
attr title "Radio reception state, vector"
80	2206462 102508 0 785250 0 71.983323607154 3748 1 3 7495 18735
80	16464969 54183 788082 1554232 72.271809167189 165.810470520905 1848 1 3 3696 9240
vector 81 FanetGpsr.host[15].wlan[0].radio transmissionState:vector ETV
attr interpolationmode sample-hold
attr source transmissionStateChanged
attr title "Radio transmission state, vector"
81	2308970 3825 0 784353 0 71.874567873449 139 1 2 208 346
81	16519152 5693 796452 1553168 73.235741421581 165.733016818904 194 1 2 291 485
vector 82 FanetGpsr.host[16].wlan[0].radio receptionState:vector ETV
attr interpolationmode sample-hold
attr source receptionStateChanged
attr title "Radio reception state, vector"
82	2312795 144126 0 784984 0 71.922675064191 5238 1 3 10475 26183
82	16524845 37497 785354 1552539 71.99029371172 165.678037002407 1285 1 3 2570 6424
vector 83 FanetGpsr.host[16].wlan[0].radio transmissionState:vector ETV
attr interpolationmode sample-hold
attr source transmissionStateChanged
attr title "Radio transmission state, vector"
83	2456921 4038 0 777926 0 71.164456021415 147 1 2 220 366
83	16562342 5627 788449 1553313 72.348466809609 165.737593198573 192 1 2 288 480
vector 84 FanetGpsr.host[17].wlan[0].radio receptionState:vector ETV
attr interpolationmode sample-hold
attr source receptionStateChanged
attr title "Radio reception state, vector"
84	2460959 154235 0 784944 0 71.922674724974 5602 1 3 11203 28005
84	16567969 101195 785358 1554037 71.990293864351 165.780408199 3491 1 3 6982 17454
vector 85 FanetGpsr.host[17].wlan[0].radio transmissionState:vector ETV
attr interpolationmode sample-hold
attr source transmissionStateChanged
attr title "Radio transmission state, vector"
85	2615194 4045 0 783798 0 71.861252488938 147 1 2 220 366
85	16669164 5707 791912 1551012 72.753536882343 165.518724421644 194 1 2 291 485
vector 86 FanetGpsr.host[18].wlan[0].radio receptionState:vector ETV
attr interpolationmode sample-hold
attr source receptionStateChanged
attr title "Radio reception state, vector"
86	2619239 142333 0 784996 0 71.92267511241 5177 1 3 10353 25879
86	16674871 73534 785359 1554041 71.990293865404 165.780408313367 2517 1 3 5034 12584
vector 87 FanetGpsr.host[18].wlan[0].radio transmissionState:vector ETV
attr interpolationmode sample-hold
attr source transmissionStateChanged
attr title "Radio transmission state, vector"
87	2761572 3829 0 782541 0 71.766040886892 139 1 2 208 346
87	16748405 5801 796110 1553024 73.21587966243 165.722680781176 198 1 2 297 495
vector 88 FanetGpsr.host[19].wlan[0].radio receptionState:vector ETV
attr interpolationmode sample-hold
attr source receptionStateChanged
attr title "Radio reception state, vector"
88	2765401 135523 0 784992 0 71.922675105799 4932 1 3 9863 24653
88	16754206 99459 785895 1554200 72.032454661993 165.810470113496 3400 1 3 6800 17000
vector 89 FanetGpsr.host[19].wlan[0].radio transmissionState:vector ETV
attr interpolationmode sample-hold
attr source transmissionStateChanged
attr title "Radio transmission state, vector"
89	2900924 4387 0 779663 0 71.350122064023 159 1 2 238 396
89	16853665 5570 787418 1543183 72.200060740112 164.453296222862 190 1 2 285 475
vector 90 FanetGpsr.host[20].wlan[0].radio receptionState:vector ETV
attr interpolationmode sample-hold
attr source receptionStateChanged
attr title "Radio reception state, vector"
90	2905311 123826 0 784184 0 71.870282292757 4510 1 3 9019 22545
90	16859235 70310 785340 1553872 71.990293070129 165.774268576511 2422 1 3 4844 12110
vector 91 FanetGpsr.host[20].wlan[0].radio transmissionState:vector ETV
attr interpolationmode sample-hold
attr source transmissionStateChanged
attr title "Radio transmission state, vector"
91	3029137 6308 0 783550 0 71.858150781701 229 1 2 343 571
91	16929545 9534 792986 1552518 72.858100040494 165.678036167198 324 1 2 486 810
vector 92 FanetGpsr.host[21].wlan[0].radio receptionState:vector ETV
attr interpolationmode sample-hold
attr source receptionStateChanged
attr title "Radio reception state, vector"
92	3035445 134116 0 785032 0 71.922675284193 4877 1 3 9753 24379
92	16939079 91626 786089 1554220 72.114889443378 165.810470436698 3134 1 3 6268 15670
vector 93 FanetGpsr.host[21].wlan[0].radio transmissionState:vector ETV
attr interpolationmode sample-hold
attr source transmissionStateChanged
attr title "Radio transmission state, vector"
93	3169561 4671 0 779218 0 71.332157685093 173 1 2 259 431
93	17030705 5719 789515 1550857 72.544890845426 165.513573860892 196 1 2 294 490
vector 94 FanetGpsr.host[22].wlan[0].radio receptionState:vector ETV
attr interpolationmode sample-hold
attr source receptionStateChanged
attr title "Radio reception state, vector"
94	3174232 115556 0 784196 0 71.870282477978 4216 1 3 8431 21073
94	17036424 95296 785346 1554374 71.99029329912 165.826380992978 3262 1 3 6524 16310
vector 95 FanetGpsr.host[22].wlan[0].radio transmissionState:vector ETV
attr interpolationmode sample-hold
attr source transmissionStateChanged
attr title "Radio transmission state, vector"
95	3289788 4050 0 777781 0 71.160112772741 147 1 2 220 366
95	17131720 6764 785879 1545803 72.03245366714 164.828082392361 230 1 2 345 575
vector 96 FanetGpsr.host[23].wlan[0].radio receptionState:vector ETV
attr interpolationmode sample-hold
attr source receptionStateChanged
attr title "Radio reception state, vector"
96	3293838 147452 0 784968 0 71.922674887446 5357 1 3 10713 26779
96	17138484 47892 786907 1553314 72.183509746278 165.73759354731 1661 1 3 3322 8304
vector 97 FanetGpsr.host[23].wlan[0].radio transmissionState:vector ETV
attr interpolationmode sample-hold
attr source transmissionStateChanged
attr title "Radio transmission state, vector"
97	3441290 4271 0 779382 0 71.344135472461 155 1 2 232 386
97	17186376 5159 786258 1543939 72.116696601971 164.565153142116 176 1 2 264 440
vector 98 FanetGpsr.host[24].wlan[0].radio receptionState:vector ETV
attr interpolationmode sample-hold
attr source receptionStateChanged
attr title "Radio reception state, vector"
98	3445561 135569 0 785262 0 71.983323892213 4934 1 3 9867 24663
98	17191535 52570 786582 1552864 72.156143751918 165.720161280024 1802 1 3 3604 9010
vector 99 FanetGpsr.host[24].wlan[0].radio transmissionState:vector ETV
attr interpolationmode sample-hold
attr source transmissionStateChanged
attr title "Radio transmission state, vector"
99	3581130 4101 0 784799 0 71.903567596016 149 1 2 223 371
99	17244105 5516 793154 1542290 72.868250602628 164.361394751727 188 1 2 282 470
vector 100 FanetGpsr.host[25].wlan[0].radio receptionState:vector ETV
attr interpolationmode sample-hold
attr source receptionStateChanged
attr title "Radio reception state, vector"
100	3585231 104865 0 785278 0 71.983324090317 3697 1 3 7393 18479
100	17249621 43003 788085 1554338 72.271809584656 165.826380489941 1414 1 3 2828 7070
vector 101 FanetGpsr.host[25].wlan[0].radio transmissionState:vector ETV
attr interpolationmode sample-hold
attr source transmissionStateChanged
attr title "Radio transmission state, vector"
101	3690096 4614 0 785122 0 71.97833601562 163 1 2 244 406
101	17292624 5829 796752 1553578 73.26608238113 165.759607380863 192 1 2 288 480
vector 102 FanetGpsr.host[26].wlan[0].radio receptionState:vector ETV
attr interpolationmode sample-hold
attr source receptionStateChanged
attr title "Radio reception state, vector"
102	3694710 139396 0 785294 0 71.983324269087 4895 1 3 9789 24469
102	17298453 62205 786099 1554228 72.114889844612 165.810470507492 2058 1 3 4116 10290
vector 103 FanetGpsr.host[26].wlan[0].radio transmissionState:vector ETV
attr interpolationmode sample-hold
attr source transmissionStateChanged
attr title "Radio transmission state, vector"
103	3834106 3970 0 779841 0 71.352931186232 139 1 2 208 346
103	17360658 5819 787084 1545291 72.186447621326 164.756111620602 192 1 2 288 480
vector 104 FanetGpsr.host[27].wlan[0].radio receptionState:vector ETV
attr interpolationmode sample-hold
attr source receptionStateChanged
attr title "Radio reception state, vector"
104	3838076 115044 0 784172 0 71.870282179589 4051 1 3 8101 20249
104	17366477 123207 785344 1554212 71.990293227925 165.810470291112 4070 1 3 8140 20350
vector 105 FanetGpsr.host[27].wlan[0].radio transmissionState:vector ETV
attr interpolationmode sample-hold
attr source transmissionStateChanged
attr title "Radio transmission state, vector"
105	3953120 4330 0 778145 0 71.212868644064 153 1 2 229 381
105	17489684 6006 785721 1552653 72.010473511183 165.692771073801 198 1 2 297 495
vector 106 FanetGpsr.host[28].wlan[0].radio receptionState:vector ETV
attr interpolationmode sample-hold
attr source receptionStateChanged
attr title "Radio reception state, vector"
106	3957450 139145 0 784952 0 71.922674841544 4884 1 3 9767 24413
106	17495690 87197 785355 1553057 71.99029379291 165.722681515549 2887 1 3 5774 14434
vector 107 FanetGpsr.host[28].wlan[0].radio transmissionState:vector ETV
attr interpolationmode sample-hold
attr source transmissionStateChanged
attr title "Radio transmission state, vector"
107	4096595 4350 0 783416 0 71.85809933668 153 1 2 229 381
107	17582887 5658 789856 1550043 72.549636782846 165.375729032459 186 1 2 279 465
vector 108 FanetGpsr.host[29].wlan[0].radio receptionState:vector ETV
attr interpolationmode sample-hold
attr source receptionStateChanged
attr title "Radio reception state, vector"
108	4100945 127604 0 784960 0 71.922674874267 4485 1 3 8969 22419
108	17588545 112104 785351 1553209 71.990293663407 165.733017765931 3712 1 3 7424 18558
vector 109 FanetGpsr.host[29].wlan[0].radio transmissionState:vector ETV
attr interpolationmode sample-hold
attr source transmissionStateChanged
attr title "Radio transmission state, vector"
109	4228549 4194 0 777408 0 71.138800035605 147 1 2 220 366
109	17700649 6011 788258 1545142 72.324793304786 164.743386365381 198 1 2 297 495
vector 110 FanetGpsr.host[30].wlan[0].radio receptionState:vector ETV
attr interpolationmode sample-hold
attr source receptionStateChanged
attr title "Radio reception state, vector"
110	4232743 135843 0 784498 0 71.882763813258 4772 1 3 9543 23853
110	17706660 103923 786090 1554378 72.114889459565 165.826381054201 3426 1 3 6852 17130
vector 111 FanetGpsr.host[30].wlan[0].radio transmissionState:vector ETV
attr interpolationmode sample-hold
attr source transmissionStateChanged
attr title "Radio transmission state, vector"
111	4368586 4083 0 779521 0 71.349798695789 143 1 2 214 356
111	17810583 6054 791228 1551418 72.703525431222 165.566286512789 200 1 2 300 500
vector 112 FanetGpsr.host[31].wlan[0].radio receptionState:vector ETV
attr interpolationmode sample-hold
attr source receptionStateChanged
attr title "Radio reception state, vector"
112	4372669 135158 0 784188 0 71.870282355109 4748 1 3 9495 23735
112	17816637 103093 785510 1554362 71.994542830321 165.826380876727 3400 1 3 6800 17000
vector 113 FanetGpsr.host[31].wlan[0].radio transmissionState:vector ETV
attr interpolationmode sample-hold
attr source transmissionStateChanged
attr title "Radio transmission state, vector"
113	4507827 4193 0 780159 0 71.354397015319 147 1 2 220 366
113	17919730 6262 785339 1553980 71.99029286718 165.780407318049 206 1 2 309 515
vector 114 FanetGpsr.host[32].wlan[0].radio receptionState:vector ETV
attr interpolationmode sample-hold
attr source receptionStateChanged
attr title "Radio reception state, vector"
114	4512020 138360 0 784988 0 71.922675083483 4858 1 3 9715 24285
114	17925992 100147 786108 1553217 72.114889924867 165.733017803293 3316 1 3 6632 16580
vector 115 FanetGpsr.host[32].wlan[0].radio transmissionState:vector ETV
attr interpolationmode sample-hold
attr source transmissionStateChanged
attr title "Radio transmission state, vector"
115	4650380 4087 0 775411 0 70.883823572099 143 1 2 214 356
115	18026139 6263 788609 1551160 72.352727594321 165.522670886153 206 1 2 309 515
vector 116 FanetGpsr.host[33].wlan[0].radio receptionState:vector ETV
attr interpolationmode sample-hold
attr source receptionStateChanged
attr title "Radio reception state, vector"
116	4654467 147409 0 785274 0 71.983324088837 5172 1 3 10343 25853
116	18032402 49144 786109 1553489 72.114889924911 165.757586829152 1634 1 3 3268 8170
vector 117 FanetGpsr.host[33].wlan[0].radio transmissionState:vector ETV
attr interpolationmode sample-hold
attr source transmissionStateChanged
attr title "Radio transmission state, vector"
117	4801876 4190 0 781300 0 71.511064744229 147 1 2 220 366
117	18081546 5525 790056 1554183 72.580332883636 165.810469581656 182 1 2 273 455
vector 118 FanetGpsr.host[34].wlan[0].radio receptionState:vector ETV
attr interpolationmode sample-hold
attr source receptionStateChanged
attr title "Radio reception state, vector"
118	4806066 141050 0 784976 0 71.922675035949 4952 1 3 9903 24755
118	18087071 90233 785347 1554184 71.990293527215 165.810469878946 2995 1 3 5990 14974
vector 119 FanetGpsr.host[34].wlan[0].radio transmissionState:vector ETV
attr interpolationmode sample-hold
attr source transmissionStateChanged
attr title "Radio transmission state, vector"
119	4947116 4027 0 777600 0 71.157503823425 141 1 2 211 351
119	18177304 5816 789678 1549340 72.546975471315 165.297752665959 192 1 2 288 480
vector 120 FanetGpsr.host[35].wlan[0].radio receptionState:vector ETV
attr interpolationmode sample-hold
attr source receptionStateChanged
attr title "Radio reception state, vector"
120	4951143 150578 0 784956 0 71.922674855519 5281 1 3 10561 26399
120	18183120 88001 785357 1554224 71.990293812986 165.810470456809 2930 1 3 5860 14650
vector 121 FanetGpsr.host[35].wlan[0].radio transmissionState:vector ETV
attr interpolationmode sample-hold
attr source transmissionStateChanged
attr title "Radio transmission state, vector"
121	5101721 4141 0 781808 0 71.641584786953 145 1 2 217 361
121	18271121 5940 792846 1549210 72.85804861146 165.222937486272 196 1 2 294 490
vector 122 FanetGpsr.host[36].wlan[0].radio receptionState:vector ETV
attr interpolationmode sample-hold
attr source receptionStateChanged
attr title "Radio reception state, vector"
122	5105862 156800 0 785000 0 71.922675123745 5497 1 3 10993 27479
122	18277061 110932 786088 1553997 72.114889220193 165.780407991659 3662 1 3 7324 18310
vector 123 FanetGpsr.host[36].wlan[0].radio transmissionState:vector ETV
attr interpolationmode sample-hold
attr source transmissionStateChanged
attr title "Radio transmission state, vector"
123	5262662 3971 0 781134 0 71.51047566896 139 1 2 208 346
123	18387993 7430 792491 1548065 72.837295366915 165.082183162116 244 1 2 366 610
vector 124 FanetGpsr.host[37].wlan[0].radio receptionState:vector ETV
attr interpolationmode sample-hold
attr source receptionStateChanged
attr title "Radio reception state, vector"
124	5266633 150011 0 784964 0 71.922674877172 5261 1 3 10521 26299
124	18395423 106847 785350 1554029 71.99029360105 165.780408172212 3554 1 3 7108 17770
vector 125 FanetGpsr.host[37].wlan[0].radio transmissionState:vector ETV
attr interpolationmode sample-hold
attr source transmissionStateChanged
attr title "Radio transmission state, vector"
125	5416644 4310 0 778822 0 71.296447710038 151 1 2 226 376
125	18502270 6040 786888 1550721 72.183509074383 165.505113349898 200 1 2 300 500
vector 126 FanetGpsr.host[38].wlan[0].radio receptionState:vector ETV
attr interpolationmode sample-hold
attr source receptionStateChanged
attr title "Radio reception state, vector"
126	5420954 145524 0 785024 0 71.922675266806 5107 1 3 10213 25529
126	18508310 72883 786092 1554208 72.114889497962 165.810470219316 2418 1 3 4836 12090
vector 127 FanetGpsr.host[38].wlan[0].radio transmissionState:vector ETV
attr interpolationmode sample-hold
attr source transmissionStateChanged
attr title "Radio transmission state, vector"
127	5566478 4252 0 782893 0 71.80617920253 149 1 2 223 371
127	18581193 5594 790580 1550365 72.627118322297 165.404840734224 184 1 2 276 460
vector 128 FanetGpsr.host[39].wlan[0].radio receptionState:vector ETV
attr interpolationmode sample-hold
attr source receptionStateChanged
attr title "Radio reception state, vector"
128	5570730 152289 0 784176 0 71.870282197407 5340 1 3 10679 26693
128	18586787 94441 785341 1554334 71.990293124068 165.826380457053 3114 1 3 6228 15570
vector 129 FanetGpsr.host[39].wlan[0].radio transmissionState:vector ETV
attr interpolationmode sample-hold
attr source transmissionStateChanged
attr title "Radio transmission state, vector"
129	5723019 3905 0 776539 0 71.006675943404 137 1 2 205 341
129	18681228 5396 785506 1552363 71.994542573578 165.671750353786 178 1 2 267 445
vector 130 FanetGpsr.host[40].wlan[0].radio receptionState:vector ETV
attr interpolationmode sample-hold
attr source receptionStateChanged
attr title "Radio reception state, vector"
130	5726924 145743 0 784972 0 71.922675018765 5114 1 3 10227 25563
130	18686624 113504 786093 1554386 72.114889516814 165.826381078962 3761 1 3 7522 18804
vector 131 FanetGpsr.host[40].wlan[0].radio transmissionState:vector ETV
attr interpolationmode sample-hold
attr source transmissionStateChanged
attr title "Radio transmission state, vector"
131	5872667 4407 0 783294 0 71.858047789771 155 1 2 232 386
131	18800128 7098 789123 1552855 72.458863217848 165.72016079295 234 1 2 351 585
vector 132 FanetGpsr.host[41].wlan[0].radio receptionState:vector ETV
attr interpolationmode sample-hold
attr source receptionStateChanged
attr title "Radio reception state, vector"
132	5877074 143207 0 785012 0 71.922675208173 5026 1 3 10051 25123
132	18807226 98746 785360 1553173 71.990293867125 165.733017135003 3272 1 3 6544 16360
vector 133 FanetGpsr.host[41].wlan[0].radio transmissionState:vector ETV
attr interpolationmode sample-hold
attr source transmissionStateChanged
attr title "Radio transmission state, vector"
133	6020281 4132 0 783988 0 71.867942009494 145 1 2 217 361
133	18905972 5818 789340 1548570 72.543022497326 165.11661749254 192 1 2 288 480
vector 134 FanetGpsr.host[42].wlan[0].radio receptionState:vector ETV
attr interpolationmode sample-hold
attr source receptionStateChanged
attr title "Radio reception state, vector"
134	6024413 158919 0 784268 0 71.870282927936 5570 1 3 11139 27843
134	18911790 113543 785356 1554390 71.990293809688 165.826381084914 3762 1 3 7524 18810
vector 135 FanetGpsr.host[42].wlan[0].radio transmissionState:vector ETV
attr interpolationmode sample-hold
attr source transmissionStateChanged
attr title "Radio transmission state, vector"
135	6183332 3965 0 777187 0 71.093598218536 139 1 2 208 346
135	19025333 5747 786714 1548708 72.16317966417 165.1660450533 190 1 2 285 475
vector 136 FanetGpsr.host[43].wlan[0].radio receptionState:vector ETV
attr interpolationmode sample-hold
attr source receptionStateChanged
attr title "Radio reception state, vector"
136	6187297 146445 0 784232 0 71.870282750547 5138 1 3 10275 25683
136	19031080 105132 785352 1553754 71.990293688039 165.766838868468 3496 1 3 6992 17480
vector 137 FanetGpsr.host[43].wlan[0].radio transmissionState:vector ETV
attr interpolationmode sample-hold
attr source transmissionStateChanged
attr title "Radio transmission state, vector"
137	6333742 4367 0 781450 0 71.527902601657 153 1 2 229 381
137	19136212 6316 793793 1547290 72.953016330487 164.980592096364 208 1 2 312 520
vector 138 FanetGpsr.host[44].wlan[0].radio receptionState:vector ETV
attr interpolationmode sample-hold
attr source receptionStateChanged
attr title "Radio reception state, vector"
138	6338109 169364 0 784940 0 71.922674576978 5932 1 3 11863 29653
138	19142528 93275 786259 1554342 72.11669691507 165.826380526689 3058 1 3 6116 15290
vector 139 FanetGpsr.host[44].wlan[0].radio transmissionState:vector ETV
attr interpolationmode sample-hold
attr source transmissionStateChanged
attr title "Radio transmission state, vector"
139	6507473 3900 0 780912 0 71.422023049465 137 1 2 205 341
139	19235803 5830 788802 1552203 72.409702186709 165.661987984927 192 1 2 288 480
vector 140 FanetGpsr.host[45].wlan[0].radio receptionState:vector ETV
attr interpolationmode sample-hold
attr source receptionStateChanged
attr title "Radio reception state, vector"
140	6511373 126928 0 785139 0 71.978336755824 4462 1 3 8923 22303
140	19241633 53825 786584 1554005 72.156143807573 165.780408021333 1778 1 3 3556 8890
vector 141 FanetGpsr.host[45].wlan[0].radio transmissionState:vector ETV
attr interpolationmode sample-hold
attr source transmissionStateChanged
attr title "Radio transmission state, vector"
141	6638301 4197 0 785249 0 71.983323349986 147 1 2 220 366
141	19295458 6132 790861 1554329 72.680567916247 165.826380174738 202 1 2 303 505
vector 142 FanetGpsr.host[46].wlan[0].radio receptionState:vector ETV
attr interpolationmode sample-hold
attr source receptionStateChanged
attr title "Radio reception state, vector"
142	6642498 110700 0 785258 0 71.983323875337 3900 1 3 7799 19495
142	19301590 52584 786581 1554188 72.156143714363 165.810469898766 1744 1 3 3488 8720
vector 143 FanetGpsr.host[46].wlan[0].radio transmissionState:vector ETV
attr interpolationmode sample-hold
attr source transmissionStateChanged
attr title "Radio transmission state, vector"
143	6753198 4308 0 783038 0 71.81582672349 151 1 2 226 376
143	19354174 5469 792104 1552052 72.77353570098 165.660470472085 180 1 2 270 450
vector 144 FanetGpsr.host[47].wlan[0].radio receptionState:vector ETV
attr interpolationmode sample-hold
attr source receptionStateChanged
attr title "Radio reception state, vector"
144	6757506 118248 0 785282 0 71.983324142311 4162 1 3 8323 20805
144	19359643 42956 790066 1554204 72.580333674702 165.810470128193 1426 1 3 2852 7130
vector 145 FanetGpsr.host[47].wlan[0].radio transmissionState:vector ETV
attr interpolationmode sample-hold
attr source transmissionStateChanged
attr title "Radio transmission state, vector"
145	6875754 4010 0 784621 0 71.883838076752 141 1 2 211 351
145	19402599 5448 793347 1544212 72.93093474978 164.623530561016 180 1 2 270 450
vector 146 FanetGpsr.host[48].wlan[0].radio receptionState:vector ETV
attr interpolationmode sample-hold
attr source receptionStateChanged
attr title "Radio reception state, vector"
146	6879764 155873 0 785016 0 71.92267522081 5465 1 3 10929 27319
146	19408047 81543 786098 1554366 72.114889824137 165.826380878215 2688 1 3 5376 13440
vector 147 FanetGpsr.host[48].wlan[0].radio transmissionState:vector ETV
attr interpolationmode sample-hold
attr source transmissionStateChanged
attr title "Radio transmission state, vector"
147	7035637 4773 0 784485 0 71.882763249237 167 1 2 250 416
147	19489590 6000 794887 1553424 73.07328677736 165.757585844863 198 1 2 297 495
vector 148 FanetGpsr.host[49].wlan[0].radio receptionState:vector ETV
attr interpolationmode sample-hold
attr source receptionStateChanged
attr title "Radio reception state, vector"
148	7040410 161959 0 785040 0 71.922675344667 5676 1 3 11351 28373
148	19495590 122962 785349 1554346 71.990293579349 165.826380531846 4074 1 3 8148 20370
vector 149 FanetGpsr.host[49].wlan[0].radio transmissionState:vector ETV
attr interpolationmode sample-hold
attr source transmissionStateChanged
attr title "Radio transmission state, vector"
149	7202369 3798 0 780328 0 71.369053855679 133 1 2 199 331
149	19618552 5588 791003 1549055 72.695838660237 165.205414765655 184 1 2 276 460
vector 150 FanetGpsr.host[40].wlan[0].mac rcvdPkFromHl:vector(packetBytes) ETV
attr interpolationmode none
attr source packetReceivedFromUpper
attr title "packets received from higher layer, vector(packetBytes)"
150	7206167 2284 253 783199 0.500055350363 71.857997123104 77 40 136 3596 208976
150	19624140 3682 789122 1552804 72.458863217848 165.720138126283 117 40 124 6444 476496
vector 151 FanetGpsr.host[40].wlan[0].mac.queue packetPushed:vector(packetBytes) ETV
attr interpolationmode none
attr title "packet pushed, vector(packetBytes)"
151	7208451 2284 253 783199 0.500055350363 71.857997123104 77 40 136 3596 208976
151	19627822 3682 789122 1552804 72.458863217848 165.720138126283 117 40 124 6444 476496
vector 152 FanetGpsr.host[40].wlan[0].mac.queue queueLength:vector ETV
attr interpolationmode sample-hold
attr source "count(packetPushed) - count(packetPopped) - count(packetRemoved) - count(packetDropped)"
attr title "queue length, vector"
152	7210735 4402 253 783199 0.500055350363 71.857997123104 154 0 1 77 77
152	19631504 7088 789122 1552804 72.458863217848 165.720138126283 234 0 1 117 117
vector 153 FanetGpsr.host[40].wlan[0].mac.queue packetPopped:vector(packetBytes) ETV
attr interpolationmode none
attr title "packet popped, vector(packetBytes)"
153	7215137 2284 253 783199 0.500055350363 71.857997123104 77 40 136 3596 208976
153	19638592 3682 789122 1552804 72.458863217848 165.720138126283 117 40 124 6444 476496
vector 154 FanetGpsr.host[40].wlan[0].mac.queue queueingTime:vector ETV
attr interpolationmode none
attr source queueingTime(packetPopped)
attr title "queueing times, vector"
attr unit s
154	7217421 2201 253 783199 0.500055350363 71.857997123104 77 0 0 0 0
154	19642274 3544 789122 1552804 72.458863217848 165.720138126283 117 0 0 0 0
vector 155 FanetGpsr.host[40].wlan[0].mac sentDownPk:vector(packetBytes) ETV
attr interpolationmode none
attr source packetSentToLower
attr title "packets sent to lower layer, vector(packetBytes)"
155	7219622 2284 253 783199 0.500055350363 71.857997123104 77 56 152 4828 343760
155	19645818 3682 789122 1552804 72.458863217848 165.720138126283 117 56 140 8316 712656
vector 156 FanetGpsr.host[17].wlan[0].mac rcvdPkFromLl:vector(packetBytes) ETV
attr interpolationmode none
attr source packetReceivedFromLower
attr title "packets received from lower layer, vector(packetBytes)"
156	7221906 82865 306 784945 0.500078029509 71.922674724974 2800 56 152 169760 11331328
156	19649500 54237 785463 1554038 71.990316531018 165.780408199 1745 56 140 111244 8123024
vector 157 FanetGpsr.host[17].wlan[0].mac passedUpPk:vector(packetBytes) ETV
attr interpolationmode none
attr source packetSentToUpper
attr title "packets passed to higher layer, vector(packetBytes)"
157	7304771 78260 306 784945 0.500078029509 71.922674724974 2646 40 40 105840 4233600
157	19703737 49178 785463 1554038 71.990316531018 165.780408199 1589 40 124 64064 2625056
vector 158 FanetGpsr.host[24].wlan[0].mac rcvdPkFromLl:vector(packetBytes) ETV
attr interpolationmode none
attr source packetReceivedFromLower
attr title "packets received from lower layer, vector(packetBytes)"
158	7383031 72822 310 785263 0.500078034949 71.983323892213 2465 56 152 149488 9984416
158	19752915 28126 786660 1552865 72.156166418585 165.720161280024 901 56 140 53312 3385312
vector 159 FanetGpsr.host[24].wlan[0].mac passedUpPk:vector(packetBytes) ETV
attr interpolationmode none
attr source packetSentToUpper
attr title "packets passed to higher layer, vector(packetBytes)"
159	7455853 68713 310 785263 0.500078034949 71.983323892213 2327 40 40 93080 3723200
159	19781041 27048 786660 1552865 72.156166418585 165.720161280024 867 40 40 34680 1387200
vector 160 FanetGpsr.host[20].wlan[0].mac rcvdPkFromLl:vector(packetBytes) ETV
attr interpolationmode none
attr source packetReceivedFromLower
attr title "packets received from lower layer, vector(packetBytes)"
160	7524566 66482 314 784185 0.500078039298 71.870282292757 2254 56 152 133892 8581840
160	19808089 37681 785391 1553873 71.990315736796 165.774268576511 1211 56 140 76720 5542880
vector 161 FanetGpsr.host[20].wlan[0].mac passedUpPk:vector(packetBytes) ETV
attr interpolationmode none
attr source packetSentToUpper
attr title "packets passed to higher layer, vector(packetBytes)"
161	7591048 64997 314 784185 0.500078039298 71.870282292757 2202 40 124 91356 4060464
161	19845770 36308 785391 1553873 71.990315736796 165.774268576511 1169 40 124 52136 2752064
vector 162 FanetGpsr.host[29].wlan[0].mac rcvdPkFromLl:vector(packetBytes) ETV
attr interpolationmode none
attr source packetReceivedFromLower
attr title "packets received from lower layer, vector(packetBytes)"
162	7656045 66117 318 784961 0.500078045575 71.922674874267 2241 56 152 136020 9100848
162	19882078 57957 785435 1553210 71.990316330074 165.733017765931 1855 56 140 111272 7266112
vector 163 FanetGpsr.host[29].wlan[0].mac passedUpPk:vector(packetBytes) ETV
attr interpolationmode none
attr source packetSentToUpper
attr title "packets passed to higher layer, vector(packetBytes)"
163	7722162 62414 318 784961 0.500078045575 71.922674874267 2116 40 40 84640 3385600
163	19940035 55162 785435 1553210 71.990316330074 165.733017765931 1768 40 124 70972 2870128
vector 164 FanetGpsr.host[12].wlan[0].mac rcvdPkFromLl:vector(packetBytes) ETV
attr interpolationmode none
attr source packetReceivedFromLower
attr title "packets received from lower layer, vector(packetBytes)"
164	7784576 83018 322 784949 0.500078048458 71.922674800036 2806 56 152 168668 11070256
164	19995197 45887 785630 1553042 71.994566228156 165.722681454128 1466 56 140 96040 7330400
vector 165 FanetGpsr.host[12].wlan[0].mac passedUpPk:vector(packetBytes) ETV
attr interpolationmode none
attr source packetSentToUpper
attr title "packets passed to higher layer, vector(packetBytes)"
165	7867594 79005 322 784949 0.500078048458 71.922674800036 2671 40 124 107092 4314928
165	20041084 40705 785630 1553042 71.994566228156 165.722681454128 1307 40 124 52868 2187632
vector 166 FanetGpsr.host[47].wlan[0].mac rcvdPkFromLl:vector(packetBytes) ETV
attr interpolationmode none
attr source packetReceivedFromLower
attr title "packets received from lower layer, vector(packetBytes)"
166	7946599 61291 326 785283 0.500078050927 71.983324142311 2080 56 152 126068 8411344
166	20081789 22220 790144 1554205 72.580356341369 165.810470128193 713 56 140 42196 2680496
vector 167 FanetGpsr.host[47].wlan[0].mac passedUpPk:vector(packetBytes) ETV
attr interpolationmode none
attr source packetSentToUpper
attr title "packets passed to higher layer, vector(packetBytes)"
167	8007890 57953 326 785283 0.500078050927 71.983324142311 1967 40 136 78776 3164096
167	20104009 21379 790144 1554205 72.580356341369 165.810470128193 686 40 40 27440 1097600
vector 168 FanetGpsr.host[15].wlan[0].mac rcvdPkFromLl:vector(packetBytes) ETV
attr interpolationmode none
attr source packetReceivedFromLower
attr title "packets received from lower layer, vector(packetBytes)"
168	8065843 55107 330 785251 0.500078052326 71.983323607154 1873 56 152 114824 7831552
168	20125388 28951 788136 1554233 72.271831833856 165.810470520905 924 56 140 53088 3161088
vector 169 FanetGpsr.host[15].wlan[0].mac passedUpPk:vector(packetBytes) ETV
attr interpolationmode none
attr source packetSentToUpper
attr title "packets passed to higher layer, vector(packetBytes)"
169	8120950 51615 330 785251 0.500078052326 71.983323607154 1755 40 40 70200 2808000
169	20154339 28458 788136 1554233 72.271831833856 165.810470520905 908 40 40 36320 1452800
vector 170 FanetGpsr.host[0].wlan[0].mac rcvdPkFromLl:vector(packetBytes) ETV
attr interpolationmode none
attr source packetReceivedFromLower
attr title "packets received from lower layer, vector(packetBytes)"
170	8172565 62677 334 785287 0.500078054136 71.983324188475 2125 56 152 126248 8094976
170	20182797 41475 786628 1552857 72.156165747001 165.720161222417 1317 56 140 83916 6122256
vector 171 FanetGpsr.host[0].wlan[0].mac passedUpPk:vector(packetBytes) ETV
attr interpolationmode none
attr source packetSentToUpper
attr title "packets passed to higher layer, vector(packetBytes)"
171	8235242 60888 334 785287 0.500078054136 71.983324188475 2063 40 124 84704 3658976
171	20224272 38788 786628 1552857 72.156165747001 165.720161222417 1234 40 124 52552 2497888
vector 172 FanetGpsr.host[22].wlan[0].mac rcvdPkFromLl:vector(packetBytes) ETV
attr interpolationmode none
attr source packetReceivedFromLower
attr title "packets received from lower layer, vector(packetBytes)"
172	8296130 62039 338 784197 0.500078087628 71.870282477978 2106 56 152 126696 8331744
172	20263060 51030 785415 1554375 71.990315965787 165.826380992978 1631 56 140 101920 7189280
vector 173 FanetGpsr.host[22].wlan[0].mac passedUpPk:vector(packetBytes) ETV
attr interpolationmode none
attr source packetSentToUpper
attr title "packets passed to higher layer, vector(packetBytes)"
173	8358169 58954 338 784197 0.500078087628 71.870282477978 2001 40 40 80040 3201600
173	20314090 47462 785415 1554375 71.990315965787 165.826380992978 1521 40 124 62184 2654016
vector 174 FanetGpsr.host[10].wlan[0].mac rcvdPkFromLl:vector(packetBytes) ETV
attr interpolationmode none
attr source packetReceivedFromLower
attr title "packets received from lower layer, vector(packetBytes)"
174	8417123 74956 342 784181 0.500078098395 71.870282256991 2536 56 152 152456 10009504
174	20361552 22849 785399 1553767 71.990315808955 165.76683899185 740 56 140 44380 2896880
vector 175 FanetGpsr.host[10].wlan[0].mac passedUpPk:vector(packetBytes) ETV
attr interpolationmode none
attr source packetSentToUpper
attr title "packets passed to higher layer, vector(packetBytes)"
175	8492079 71281 342 784181 0.500078098395 71.870282256991 2412 40 40 96480 3859200
175	20384401 21702 785399 1553767 71.990315808955 165.76683899185 704 40 40 28160 1126400
vector 176 FanetGpsr.host[45].wlan[0].mac rcvdPkFromLl:vector(packetBytes) ETV
attr interpolationmode none
attr source packetReceivedFromLower
attr title "packets received from lower layer, vector(packetBytes)"
176	8563360 65775 346 785140 0.500078105347 71.978336755824 2229 56 152 136944 9376032
176	20406103 27820 786668 1554006 72.15616647424 165.780408021333 889 56 140 51632 3150112
vector 177 FanetGpsr.host[45].wlan[0].mac passedUpPk:vector(packetBytes) ETV
attr interpolationmode none
attr source packetSentToUpper
attr title "packets passed to higher layer, vector(packetBytes)"
177	8629135 61420 346 785140 0.500078105347 71.978336755824 2083 40 40 83320 3332800
177	20433923 27136 786668 1554006 72.15616647424 165.780408021333 867 40 40 34680 1387200
vector 178 FanetGpsr.host[33].wlan[0].mac rcvdPkFromLl:vector(packetBytes) ETV
attr interpolationmode none
attr source packetReceivedFromLower
attr title "packets received from lower layer, vector(packetBytes)"
178	8690555 76391 350 785275 0.500078105733 71.983324088837 2584 56 152 158252 10769200
178	20461059 25435 786226 1553490 72.114912591578 165.757586829152 817 56 140 49280 3253600
vector 179 FanetGpsr.host[33].wlan[0].mac passedUpPk:vector(packetBytes) ETV
attr interpolationmode none
attr source packetSentToUpper
attr title "packets passed to higher layer, vector(packetBytes)"
179	8766946 71537 350 785275 0.500078105733 71.983324088837 2422 40 124 96964 3888976
179	20486494 24127 786226 1553490 72.114912591578 165.757586829152 775 40 40 31000 1240000
vector 180 FanetGpsr.host[8].wlan[0].mac rcvdPkFromLl:vector(packetBytes) ETV
attr interpolationmode none
attr source packetReceivedFromLower
attr title "packets received from lower layer, vector(packetBytes)"
180	8838483 54758 354 785267 0.500078108144 71.983323944132 1861 56 152 114152 7793920
180	20510621 32309 788132 1554395 72.271831600559 165.826381129 1023 56 56 57288 3208128
vector 181 FanetGpsr.host[8].wlan[0].mac passedUpPk:vector(packetBytes) ETV
attr interpolationmode none
attr source packetSentToUpper
attr title "packets passed to higher layer, vector(packetBytes)"
181	8893241 51234 354 785267 0.500078108144 71.983323944132 1742 40 40 69680 2787200
181	20542930 32309 788132 1554395 72.271831600559 165.826381129 1023 40 40 40920 1636800
vector 182 FanetGpsr.host[48].wlan[0].mac rcvdPkFromLl:vector(packetBytes) ETV
attr interpolationmode none
attr source packetReceivedFromLower
attr title "packets received from lower layer, vector(packetBytes)"
182	8944475 80793 358 785017 0.500078126615 71.92267522081 2731 56 152 166484 11230192
182	20575239 42277 786182 1554367 72.114912490804 165.826380878215 1344 56 140 88872 6881952
vector 183 FanetGpsr.host[48].wlan[0].mac passedUpPk:vector(packetBytes) ETV
attr interpolationmode none
attr source packetSentToUpper
attr title "packets passed to higher layer, vector(packetBytes)"
183	9025268 76255 358 785017 0.500078126615 71.92267522081 2579 40 124 104000 4264160
183	20617516 37280 786182 1554367 72.114912490804 165.826380878215 1189 40 124 48148 1998832
vector 184 FanetGpsr.host[38].wlan[0].mac rcvdPkFromLl:vector(packetBytes) ETV
attr interpolationmode none
attr source packetReceivedFromLower
attr title "packets received from lower layer, vector(packetBytes)"
184	9101523 75438 362 785025 0.500078130388 71.922675266806 2552 56 152 156880 10751168
184	20654796 37765 786158 1554209 72.114912164629 165.810470219316 1209 56 140 75852 5388432
vector 185 FanetGpsr.host[38].wlan[0].mac passedUpPk:vector(packetBytes) ETV
attr interpolationmode none
attr source packetSentToUpper
attr title "packets passed to higher layer, vector(packetBytes)"
185	9176961 70439 362 785025 0.500078130388 71.922675266806 2385 40 40 95400 3816000
185	20692561 34670 786158 1554209 72.114912164629 165.810470219316 1112 40 40 44480 1779200
vector 186 FanetGpsr.host[16].wlan[0].mac rcvdPkFromLl:vector(packetBytes) ETV
attr interpolationmode none
attr source packetReceivedFromLower
attr title "packets received from lower layer, vector(packetBytes)"
186	9247400 77371 366 784985 0.500078139356 71.922675064191 2617 56 152 156908 10247056
186	20727231 20038 785447 1552540 71.990316378387 165.678037002407 642 56 140 37380 2293200
vector 187 FanetGpsr.host[16].wlan[0].mac passedUpPk:vector(packetBytes) ETV
attr interpolationmode none
attr source packetSentToUpper
attr title "packets passed to higher layer, vector(packetBytes)"
187	9324771 73700 366 784985 0.500078139356 71.922675064191 2493 40 40 99720 3988800
187	20747269 19473 785447 1552540 71.990316378387 165.678037002407 624 40 40 24960 998400
vector 188 FanetGpsr.host[36].wlan[0].mac rcvdPkFromLl:vector(packetBytes) ETV
attr interpolationmode none
attr source packetReceivedFromLower
attr title "packets received from lower layer, vector(packetBytes)"
188	9398471 81264 370 785001 0.500078140318 71.922675123745 2747 56 152 167296 11263904
188	20766742 57504 786142 1553998 72.11491188686 165.780407991659 1831 56 140 119420 9051280
vector 189 FanetGpsr.host[36].wlan[0].mac passedUpPk:vector(packetBytes) ETV
attr interpolationmode none
attr source packetSentToUpper
attr title "packets passed to higher layer, vector(packetBytes)"
189	9479735 76444 370 785001 0.500078140318 71.922675123745 2586 40 40 103440 4137600
189	20824246 51816 786142 1553998 72.11491188686 165.780407991659 1656 40 124 68424 3007776
vector 190 FanetGpsr.host[4].wlan[0].mac rcvdPkFromLl:vector(packetBytes) ETV
attr interpolationmode none
attr source packetReceivedFromLower
attr title "packets received from lower layer, vector(packetBytes)"
190	9556179 56022 374 785271 0.500078155088 71.983323997925 1904 56 152 116476 7912304
190	20876062 29344 786644 1554197 72.156166264726 165.810470052384 937 56 140 54404 3317104
vector 191 FanetGpsr.host[4].wlan[0].mac passedUpPk:vector(packetBytes) ETV
attr interpolationmode none
attr source packetSentToUpper
attr title "packets passed to higher layer, vector(packetBytes)"
191	9612201 52535 374 785271 0.500078155088 71.983323997925 1786 40 40 71440 2857600
191	20905406 28631 786644 1554197 72.156166264726 165.810470052384 914 40 40 36560 1462400
vector 192 FanetGpsr.host[28].wlan[0].mac rcvdPkFromLl:vector(packetBytes) ETV
attr interpolationmode none
attr source packetReceivedFromLower
attr title "packets received from lower layer, vector(packetBytes)"
192	9664736 72109 378 784953 0.500078157417 71.922674841544 2440 56 152 147908 9869584
192	20934037 45205 785451 1553058 71.990316459577 165.722681515549 1443 56 140 95760 7455840
vector 193 FanetGpsr.host[28].wlan[0].mac passedUpPk:vector(packetBytes) ETV
attr interpolationmode none
attr source packetSentToUpper
attr title "packets passed to higher layer, vector(packetBytes)"
193	9736845 68207 378 784953 0.500078157417 71.922674841544 2309 40 136 92708 3752624
193	20979242 39508 785451 1553058 71.990316459577 165.722681515549 1268 40 124 51056 2083904
vector 194 FanetGpsr.host[32].wlan[0].mac rcvdPkFromLl:vector(packetBytes) ETV
attr interpolationmode none
attr source packetReceivedFromLower
attr title "packets received from lower layer, vector(packetBytes)"
194	9805052 71734 382 784989 0.500078162521 71.922675083483 2428 56 152 149600 10296448
194	21018750 51897 786222 1553218 72.114912591534 165.733017803293 1658 56 140 106120 7800800
vector 195 FanetGpsr.host[32].wlan[0].mac passedUpPk:vector(packetBytes) ETV
attr interpolationmode none
attr source packetSentToUpper
attr title "packets passed to higher layer, vector(packetBytes)"
195	9876786 66909 382 784989 0.500078162521 71.922675083483 2267 40 124 90764 3640976
195	21070647 47172 786222 1553218 72.114912591534 165.733017803293 1512 40 124 61488 2584512
vector 196 FanetGpsr.host[1].wlan[0].mac rcvdPkFromLl:vector(packetBytes) ETV
attr interpolationmode none
attr source packetReceivedFromLower
attr title "packets received from lower layer, vector(packetBytes)"
196	9943695 82690 386 785005 0.500078174019 71.922675137482 2795 56 152 169396 11299184
196	21117819 52478 786453 1554331 72.118977542076 165.826380330461 1675 56 140 102788 7014448
vector 197 FanetGpsr.host[1].wlan[0].mac passedUpPk:vector(packetBytes) ETV
attr interpolationmode none
attr source packetSentToUpper
attr title "packets passed to higher layer, vector(packetBytes)"
197	10026385 78091 386 785005 0.500078174019 71.922675137482 2641 40 40 105640 4225600
197	21170297 49069 786453 1554331 72.118977542076 165.826380330461 1569 40 124 62844 2524176
vector 198 FanetGpsr.host[7].wlan[0].mac rcvdPkFromLl:vector(packetBytes) ETV
attr interpolationmode none
attr source packetReceivedFromLower
attr title "packets received from lower layer, vector(packetBytes)"
198	10104476 60253 390 784193 0.500078176334 71.870282477216 2046 56 152 123588 8192976
198	21219366 34301 785403 1554010 71.990315853729 165.780408030918 1096 56 140 69188 4968208
vector 199 FanetGpsr.host[7].wlan[0].mac passedUpPk:vector(packetBytes) ETV
attr interpolationmode none
attr source packetSentToUpper
attr title "packets passed to higher layer, vector(packetBytes)"
199	10164729 57098 390 784193 0.500078176334 71.870282477216 1939 40 40 77560 3102400
199	21253667 31244 785403 1554010 71.990315853729 165.780408030918 1002 40 40 40080 1603200
vector 200 FanetGpsr.host[42].wlan[0].mac rcvdPkFromLl:vector(packetBytes) ETV
attr interpolationmode none
attr source packetReceivedFromLower
attr title "packets received from lower layer, vector(packetBytes)"
200	10221827 82337 394 784269 0.500078176467 71.870282927936 2783 56 152 168976 11310944
200	21284911 58811 785455 1554391 71.990316476355 165.826381084914 1881 56 140 118776 8533056
vector 201 FanetGpsr.host[42].wlan[0].mac passedUpPk:vector(packetBytes) ETV
attr interpolationmode none
attr source packetSentToUpper
attr title "packets passed to higher layer, vector(packetBytes)"
201	10304164 77638 394 784269 0.500078176467 71.870282927936 2626 40 40 105040 4201600
201	21343722 53718 785455 1554391 71.990316476355 165.826381084914 1724 40 124 69212 2799728
vector 202 FanetGpsr.host[35].wlan[0].mac rcvdPkFromLl:vector(packetBytes) ETV
attr interpolationmode none
attr source packetReceivedFromLower
attr title "packets received from lower layer, vector(packetBytes)"
202	10381802 78043 398 784957 0.500078177775 71.922674855519 2639 56 152 159232 10530080
202	21397440 45567 785459 1554225 71.990316479653 165.810470456809 1465 56 140 90020 6158320
vector 203 FanetGpsr.host[35].wlan[0].mac passedUpPk:vector(packetBytes) ETV
attr interpolationmode none
attr source packetSentToUpper
attr title "packets passed to higher layer, vector(packetBytes)"
203	10459845 74019 398 784957 0.500078177775 71.922674855519 2504 40 124 100244 4020176
203	21443007 42680 785459 1554225 71.990316479653 165.810470456809 1375 40 124 55420 2268880
vector 204 FanetGpsr.host[49].wlan[0].mac rcvdPkFromLl:vector(packetBytes) ETV
attr interpolationmode none
attr source packetReceivedFromLower
attr title "packets received from lower layer, vector(packetBytes)"
204	10533864 83918 402 785041 0.50007817853 71.922675344667 2836 56 152 171104 11312512
204	21485687 63645 785427 1554347 71.990316246016 165.826380531846 2037 56 140 124236 8380176
vector 205 FanetGpsr.host[49].wlan[0].mac passedUpPk:vector(packetBytes) ETV
attr interpolationmode none
attr source packetSentToUpper
attr title "packets passed to higher layer, vector(packetBytes)"
205	10617782 79526 402 785041 0.50007817853 71.922675344667 2689 40 40 107560 4302400
205	21549332 59856 785427 1554347 71.990316246016 165.826380531846 1920 40 124 77136 3127104
vector 206 FanetGpsr.host[3].wlan[0].mac rcvdPkFromLl:vector(packetBytes) ETV
attr interpolationmode none
attr source packetReceivedFromLower
attr title "packets received from lower layer, vector(packetBytes)"
206	10697308 82208 406 784981 0.500078194763 71.922675046162 2778 56 152 168444 11245872
206	21609188 61451 786138 1554351 72.114911851844 165.826380735564 1956 56 140 123816 8932896
vector 207 FanetGpsr.host[3].wlan[0].mac passedUpPk:vector(packetBytes) ETV
attr interpolationmode none
attr source packetSentToUpper
attr title "packets passed to higher layer, vector(packetBytes)"
207	10779516 77579 406 784981 0.500078194763 71.922675046162 2623 40 40 104920 4196800
207	21670639 55955 786138 1554351 72.114911851844 165.826380735564 1787 40 124 71564 2872976
vector 208 FanetGpsr.host[6].wlan[0].mac rcvdPkFromLl:vector(packetBytes) ETV
attr interpolationmode none
attr source packetReceivedFromLower
attr title "packets received from lower layer, vector(packetBytes)"
208	10857095 75515 410 785037 0.500078197324 71.922675324876 2556 56 152 154080 10171008
208	21726594 28825 785411 1553869 71.990315921137 165.774268145366 929 56 140 58912 4263392
vector 209 FanetGpsr.host[6].wlan[0].mac passedUpPk:vector(packetBytes) ETV
attr interpolationmode none
attr source packetSentToUpper
attr title "packets passed to higher layer, vector(packetBytes)"
209	10932610 71656 410 785037 0.500078197324 71.922675324876 2426 40 124 97124 3895376
209	21755419 26136 785411 1553869 71.990315921137 165.774268145366 846 40 40 33840 1353600
vector 210 FanetGpsr.host[43].wlan[0].mac rcvdPkFromLl:vector(packetBytes) ETV
attr interpolationmode none
attr source packetReceivedFromLower
attr title "packets received from lower layer, vector(packetBytes)"
210	11004266 75863 414 784233 0.500078199348 71.870282750547 2567 56 152 154108 10090256
210	21781555 54460 785439 1553755 71.990316354706 165.766838868468 1748 56 140 109396 7737296
vector 211 FanetGpsr.host[43].wlan[0].mac passedUpPk:vector(packetBytes) ETV
attr interpolationmode none
attr source packetSentToUpper
attr title "packets passed to higher layer, vector(packetBytes)"
211	11080129 72184 414 784233 0.500078199348 71.870282750547 2443 40 40 97720 3908800
211	21836015 50245 785439 1553755 71.990316354706 165.766838868468 1618 40 124 65308 2685232
vector 212 FanetGpsr.host[44].wlan[0].mac rcvdPkFromLl:vector(packetBytes) ETV
attr interpolationmode none
attr source packetReceivedFromLower
attr title "packets received from lower layer, vector(packetBytes)"
212	11152313 87733 418 784941 0.500078201603 71.922674576978 2964 56 152 178692 11796240
212	21886260 48326 786310 1554343 72.116719581737 165.826380526689 1529 56 140 98308 7281008
vector 213 FanetGpsr.host[44].wlan[0].mac passedUpPk:vector(packetBytes) ETV
attr interpolationmode none
attr source packetSentToUpper
attr title "packets passed to higher layer, vector(packetBytes)"
213	11240046 83190 418 784941 0.500078201603 71.922674576978 2812 40 40 112480 4499200
213	21934586 43623 786310 1554343 72.116719581737 165.826380526689 1385 40 124 55988 2312432
vector 214 FanetGpsr.host[34].wlan[0].mac rcvdPkFromLl:vector(packetBytes) ETV
attr interpolationmode none
attr source packetReceivedFromLower
attr title "packets received from lower layer, vector(packetBytes)"
214	11323236 73116 422 784977 0.500078204947 71.922675035949 2475 56 152 148956 9801744
214	21978209 46630 785419 1554185 71.990316193882 165.810469878946 1497 56 140 86436 5204976
vector 215 FanetGpsr.host[34].wlan[0].mac passedUpPk:vector(packetBytes) ETV
attr interpolationmode none
attr source packetSentToUpper
attr title "packets passed to higher layer, vector(packetBytes)"
215	11396352 69498 422 784977 0.500078204947 71.922675035949 2353 40 40 94120 3764800
215	22024839 45631 785419 1554185 71.990316193882 165.810469878946 1465 40 40 58600 2344000
vector 216 FanetGpsr.host[30].wlan[0].mac rcvdPkFromLl:vector(packetBytes) ETV
attr interpolationmode none
attr source packetReceivedFromLower
attr title "packets received from lower layer, vector(packetBytes)"
216	11465850 70401 426 784499 0.500078211477 71.882763813258 2384 56 152 146800 10092608
216	22070470 53861 786150 1554379 72.114912126232 165.826381054201 1713 56 140 111300 8384880
vector 217 FanetGpsr.host[30].wlan[0].mac passedUpPk:vector(packetBytes) ETV
attr interpolationmode none
attr source packetSentToUpper
attr title "packets passed to higher layer, vector(packetBytes)"
217	11536251 65611 426 784499 0.500078211477 71.882763813258 2224 40 40 88960 3558400
217	22124331 48061 786150 1554379 72.114912126232 165.826381054201 1534 40 124 61696 2509504
vector 218 FanetGpsr.host[11].wlan[0].mac rcvdPkFromLl:vector(packetBytes) ETV
attr interpolationmode none
attr source packetReceivedFromLower
attr title "packets received from lower layer, vector(packetBytes)"
218	11601862 69313 430 785291 0.500078214418 71.983324223601 2347 56 152 144392 9910720
218	22172392 23551 786206 1554193 72.114912549687 165.810469985198 752 56 140 43876 2704016
vector 219 FanetGpsr.host[11].wlan[0].mac passedUpPk:vector(packetBytes) ETV
attr interpolationmode none
attr source packetSentToUpper
attr title "packets passed to higher layer, vector(packetBytes)"
219	11671175 64719 430 785291 0.500078214418 71.983324223601 2193 40 40 87720 3508800
219	22195943 22903 786206 1554193 72.114912549687 165.810469985198 731 40 40 29240 1169600
vector 220 FanetGpsr.host[18].wlan[0].mac rcvdPkFromLl:vector(packetBytes) ETV
attr interpolationmode none
attr source packetReceivedFromLower
attr title "packets received from lower layer, vector(packetBytes)"
220	11735894 76419 434 784997 0.500078215408 71.92267511241 2587 56 152 154556 10021264
220	22218846 39436 785467 1554042 71.990316532071 165.780408313367 1258 56 140 84308 6661648
vector 221 FanetGpsr.host[18].wlan[0].mac passedUpPk:vector(packetBytes) ETV
attr interpolationmode none
attr source packetSentToUpper
attr title "packets passed to higher layer, vector(packetBytes)"
221	11812313 72987 434 784997 0.500078215408 71.92267511241 2471 40 40 98840 3953600
221	22258282 34145 785467 1554042 71.990316532071 165.780408313367 1096 40 124 44176 1808704
vector 222 FanetGpsr.host[19].wlan[0].mac rcvdPkFromLl:vector(packetBytes) ETV
attr interpolationmode none
attr source packetReceivedFromLower
attr title "packets received from lower layer, vector(packetBytes)"
222	11885300 72775 438 784993 0.50007821872 71.922675105799 2464 56 152 148340 9767248
222	22292427 53233 785991 1554201 72.03247732866 165.810470113496 1700 56 140 104356 7125776
vector 223 FanetGpsr.host[19].wlan[0].mac passedUpPk:vector(packetBytes) ETV
attr interpolationmode none
attr source packetSentToUpper
attr title "packets passed to higher layer, vector(packetBytes)"
223	11958075 69352 438 784993 0.50007821872 71.922675105799 2348 40 124 94592 3867008
223	22345660 49728 785991 1554201 72.03247732866 165.810470113496 1591 40 40 63640 2545600
vector 224 FanetGpsr.host[2].wlan[0].mac rcvdPkFromLl:vector(packetBytes) ETV
attr interpolationmode none
attr source packetReceivedFromLower
attr title "packets received from lower layer, vector(packetBytes)"
224	12027427 81797 442 785021 0.500078292301 71.922675225274 2765 56 152 166372 10941680
224	22395388 62409 785443 1554371 71.990316355291 165.826380890829 1996 56 140 121940 8251600
vector 225 FanetGpsr.host[2].wlan[0].mac passedUpPk:vector(packetBytes) ETV
attr interpolationmode none
attr source packetSentToUpper
attr title "packets passed to higher layer, vector(packetBytes)"
225	12109224 77718 442 785021 0.500078292301 71.922675225274 2628 40 40 105120 4204800
225	22457797 58533 785443 1554371 71.990316355291 165.826380890829 1876 40 124 75124 3015376
vector 226 FanetGpsr.host[41].wlan[0].mac rcvdPkFromLl:vector(packetBytes) ETV
attr interpolationmode none
attr source packetReceivedFromLower
attr title "packets received from lower layer, vector(packetBytes)"
226	12186942 74201 446 785013 0.500078294556 71.922675208173 2511 56 152 150972 9914640
226	22516330 51116 785471 1553174 71.990316533792 165.733017135003 1636 56 140 100856 6941536
vector 227 FanetGpsr.host[41].wlan[0].mac passedUpPk:vector(packetBytes) ETV
attr interpolationmode none
attr source packetSentToUpper
attr title "packets passed to higher layer, vector(packetBytes)"
227	12261143 70526 446 785013 0.500078294556 71.922675208173 2387 40 40 95480 3819200
227	22567446 47575 785471 1553174 71.990316533792 165.733017135003 1526 40 40 61040 2441600
vector 228 FanetGpsr.host[37].wlan[0].mac rcvdPkFromLl:vector(packetBytes) ETV
attr interpolationmode none
attr source packetReceivedFromLower
attr title "packets received from lower layer, vector(packetBytes)"
228	12331669 77733 450 784965 0.500078296673 71.922674877172 2629 56 152 157832 10334080
228	22615021 55330 785431 1554030 71.990316267717 165.780408172212 1777 56 140 110600 7745920
vector 229 FanetGpsr.host[37].wlan[0].mac passedUpPk:vector(packetBytes) ETV
attr interpolationmode none
attr source packetSentToUpper
attr title "packets passed to higher layer, vector(packetBytes)"
229	12409402 73991 450 784965 0.500078296673 71.922674877172 2503 40 40 100120 4004800
229	22670351 51202 785431 1554030 71.990316267717 165.780408172212 1650 40 124 66420 2708880
vector 230 FanetGpsr.host[46].wlan[0].mac rcvdPkFromLl:vector(packetBytes) ETV
attr interpolationmode none
attr source packetReceivedFromLower
attr title "packets received from lower layer, vector(packetBytes)"
230	12483393 57393 454 785259 0.500078320099 71.983323875337 1949 56 152 119332 8119280
230	22721553 27182 786656 1554189 72.15616638103 165.810469898766 872 56 140 50512 3063872
vector 231 FanetGpsr.host[46].wlan[0].mac passedUpPk:vector(packetBytes) ETV
attr interpolationmode none
attr source packetSentToUpper
attr title "packets passed to higher layer, vector(packetBytes)"
231	12540786 53809 454 785259 0.500078320099 71.983323875337 1828 40 40 73120 2924800
231	22748735 26563 786656 1554189 72.15616638103 165.810469898766 852 40 40 34080 1363200
vector 232 FanetGpsr.host[23].wlan[0].mac rcvdPkFromLl:vector(packetBytes) ETV
attr interpolationmode none
attr source packetReceivedFromLower
attr title "packets received from lower layer, vector(packetBytes)"
232	12594595 79167 458 784969 0.500078326049 71.922674887446 2677 56 152 159176 10221184
232	22775298 25641 787012 1553315 72.183532412945 165.73759354731 830 56 140 50176 3327296
vector 233 FanetGpsr.host[23].wlan[0].mac passedUpPk:vector(packetBytes) ETV
attr interpolationmode none
attr source packetSentToUpper
attr title "packets passed to higher layer, vector(packetBytes)"
233	12673762 75888 458 784969 0.500078326049 71.922674887446 2566 40 40 102640 4105600
233	22800939 24197 787012 1553315 72.183532412945 165.73759354731 785 40 40 31400 1256000
vector 234 FanetGpsr.host[14].wlan[0].mac rcvdPkFromLl:vector(packetBytes) ETV
attr interpolationmode none
attr source packetReceivedFromLower
attr title "packets received from lower layer, vector(packetBytes)"
234	12749650 61142 462 785255 0.500078328045 71.983323842785 2074 56 152 127508 8741776
234	22825136 28248 790160 1554383 72.580356521842 165.826381064288 896 56 140 52024 3172064
vector 235 FanetGpsr.host[14].wlan[0].mac passedUpPk:vector(packetBytes) ETV
attr interpolationmode none
attr source packetSentToUpper
attr title "packets passed to higher layer, vector(packetBytes)"
235	12810792 57099 462 785255 0.500078328045 71.983323842785 1938 40 40 77520 3100800
235	22853384 27528 790160 1554383 72.580356521842 165.826381064288 874 40 40 34960 1398400
[...]
vector 599 FanetGpsr.host[19].wlan[0].mac.queue packetPopped:vector(packetBytes) ETV
attr interpolationmode none
attr title "packet popped, vector(packetBytes)"
599	15206193 2358 20242 779612 1.490338945994 71.350099397356 79 40 124 3832 236608
599	25025934 2977 787417 1543132 72.200060740112 164.453273556195 95 40 40 3800 152000
vector 600 FanetGpsr.host[19].wlan[0].mac.queue queueingTime:vector ETV
attr interpolationmode none
attr source queueingTime(packetPopped)
attr title "queueing times, vector"
attr unit s
600	15208551 2271 20242 779612 1.490338945994 71.350099397356 79 0 0 0 0
600	25028911 2882 787417 1543132 72.200060740112 164.453273556195 95 0 0 0 0
vector 601 FanetGpsr.host[19].wlan[0].mac sentDownPk:vector(packetBytes) ETV
attr interpolationmode none
attr source packetSentToLower
attr title "packets sent to lower layer, vector(packetBytes)"
601	15210822 2358 20242 779612 1.490338945994 71.350099397356 79 56 140 5096 379456
601	25031793 2977 787417 1543132 72.200060740112 164.453273556195 95 56 56 5320 297920
vector 602 FanetGpsr.host[0].app[0] pingRxSeq:vector ETV
attr interpolationmode none
attr title "ping rx seq, vector"
602	15213180 754 24173 408126 1.858047101577 31.858150807994 26 1 31 356 6486
602	25034770 1244 904690 1546842 85.858254589712 164.858254037038 38 85 164 5095 696283
vector 603 FanetGpsr.host[0].app[0] rtt:vector ETV
attr interpolationmode none
attr title "ping round-trip time, vector"
attr unit s
603	15213934 1075 24173 408126 1.858047101577 31.858150807994 26 0.000101481728 0.000205188145 0.002768392063 3.0491130166321e-007
603	25036014 1663 904690 1546842 85.858254589712 164.858254037038 38 0.00020609759 0.000308969863 0.009676418419 2.5628680727712e-006
vector 604 FanetGpsr.host[0].app[0] numLost:vector ETV
attr interpolationmode none
attr title "pings lost, vector"
604	15215009 56 24173 408126 1.858047101577 31.858150807994 2 1 6 7 37
604	25037677 316 904690 1520613 85.858254589712 161.858253950488 10 59 101 841 72259
vector 605 FanetGpsr.host[9].wlan[0].mac packetDropIncorrectlyReceived:vector(packetBytes) ETV
attr interpolationmode none
attr source packetDropReasonIsIncorrectlyReceived(packetDropped)
attr title "packet drop: incorrectly received, vector(packetBytes)"
605	15215065 61 225905 690548 16.820108611076 61.858151242217 2 56 140 196 22736
vector 606 FanetGpsr.host[43].wlan[0].mac packetDropIncorrectlyReceived:vector(packetBytes) ETV
attr interpolationmode none
attr source packetDropReasonIsIncorrectlyReceived(packetDropped)
attr title "packet drop: incorrectly received, vector(packetBytes)"
606	15215126 91 225907 690553 16.820108651304 61.858151308306 3 56 140 252 25872
vector 607 FanetGpsr.host[2].wlan[0].mac packetDropIncorrectlyReceived:vector(packetBytes) ETV
attr interpolationmode none
attr source packetDropReasonIsIncorrectlyReceived(packetDropped)
attr title "packet drop: incorrectly received, vector(packetBytes)"
607	15215217 61 225909 690576 16.820108652587 61.858151614092 2 56 140 196 22736
vector 608 FanetGpsr.host[35].wlan[0].mac packetDropIncorrectlyReceived:vector(packetBytes) ETV
attr interpolationmode none
attr source packetDropReasonIsIncorrectlyReceived(packetDropped)
attr title "packet drop: incorrectly received, vector(packetBytes)"
608	15215278 61 225911 690580 16.820108664175 61.858151688908 2 56 140 196 22736
vector 609 FanetGpsr.host[13].wlan[0].mac packetDropIncorrectlyReceived:vector(packetBytes) ETV
attr interpolationmode none
attr source packetDropReasonIsIncorrectlyReceived(packetDropped)
attr title "packet drop: incorrectly received, vector(packetBytes)"
609	15215339 60 225913 320605 16.820108671391 24.135445111908 2 56 56 112 6272
vector 610 FanetGpsr.host[37].wlan[0].mac packetDropIncorrectlyReceived:vector(packetBytes) ETV
attr interpolationmode none
attr source packetDropReasonIsIncorrectlyReceived(packetDropped)
attr title "packet drop: incorrectly received, vector(packetBytes)"
610	15215399 61 225915 690582 16.820108677109 61.858151690632 2 56 140 196 22736
vector 611 FanetGpsr.host[18].wlan[0].mac packetDropIncorrectlyReceived:vector(packetBytes) ETV
attr interpolationmode none
attr source packetDropReasonIsIncorrectlyReceived(packetDropped)
attr title "packet drop: incorrectly received, vector(packetBytes)"
611	15215460 60 225917 320562 16.820108687167 24.135444995003 2 56 56 112 6272
611	25037993 30 888021 888021 83.924669585146 83.924669585146 1 56 56 56 3136
vector 612 FanetGpsr.host[10].wlan[0].mac packetDropIncorrectlyReceived:vector(packetBytes) ETV
attr interpolationmode none
attr source packetDropReasonIsIncorrectlyReceived(packetDropped)
attr title "packet drop: incorrectly received, vector(packetBytes)"
612	15215520 30 225919 225919 16.820108691169 16.820108691169 1 56 56 56 3136
612	25038023 32 1123756 1123756 112.598309489778 112.598309489778 1 56 56 56 3136
vector 613 FanetGpsr.host[19].wlan[0].mac packetDropIncorrectlyReceived:vector(packetBytes) ETV
attr interpolationmode none
attr source packetDropReasonIsIncorrectlyReceived(packetDropped)
attr title "packet drop: incorrectly received, vector(packetBytes)"
613	15215550 91 225921 690562 16.820108717188 61.858151388355 3 56 140 252 25872
vector 614 FanetGpsr.host[17].wlan[0].mac packetDropIncorrectlyReceived:vector(packetBytes) ETV
attr interpolationmode none
attr source packetDropReasonIsIncorrectlyReceived(packetDropped)
attr title "packet drop: incorrectly received, vector(packetBytes)"
614	15215641 30 225923 225923 16.820108745459 16.820108745459 1 56 56 56 3136
614	25038055 30 888025 888025 83.924669605345 83.924669605345 1 56 56 56 3136
vector 615 FanetGpsr.host[41].wlan[0].mac packetDropIncorrectlyReceived:vector(packetBytes) ETV
attr interpolationmode none
attr source packetDropReasonIsIncorrectlyReceived(packetDropped)
attr title "packet drop: incorrectly received, vector(packetBytes)"
615	15215671 91 225925 690571 16.820108769495 61.858151550396 3 56 140 252 25872
vector 616 FanetGpsr.host[23].wlan[0].mac packetDropIncorrectlyReceived:vector(packetBytes) ETV
attr interpolationmode none
attr source packetDropReasonIsIncorrectlyReceived(packetDropped)
attr title "packet drop: incorrectly received, vector(packetBytes)"
616	15215762 60 225927 420306 16.820108802759 32.989756169189 2 56 56 112 6272
616	25038085 30 888023 888023 83.924669596662 83.924669596662 1 56 56 56 3136
vector 617 FanetGpsr.host[26].wlan[0].mac packetDropIncorrectlyReceived:vector(packetBytes) ETV
attr interpolationmode none
attr source packetDropReasonIsIncorrectlyReceived(packetDropped)
attr title "packet drop: incorrectly received, vector(packetBytes)"
617	15215822 60 225929 320608 16.820108828759 24.135445126411 2 56 56 112 6272
vector 618 FanetGpsr.host[30].wlan[0].mac packetDropIncorrectlyReceived:vector(packetBytes) ETV
attr interpolationmode none
attr source packetDropReasonIsIncorrectlyReceived(packetDropped)
attr title "packet drop: incorrectly received, vector(packetBytes)"
618	15215882 90 225931 420308 16.820108831786 32.989756177342 3 56 56 168 9408
vector 619 FanetGpsr.host[36].wlan[0].mac packetDropIncorrectlyReceived:vector(packetBytes) ETV
attr interpolationmode none
attr source packetDropReasonIsIncorrectlyReceived(packetDropped)
attr title "packet drop: incorrectly received, vector(packetBytes)"
619	15215972 60 225933 320611 16.820108851967 24.135445136611 2 56 56 112 6272
vector 620 FanetGpsr.host[42].wlan[0].mac packetDropIncorrectlyReceived:vector(packetBytes) ETV
attr interpolationmode none
attr source packetDropReasonIsIncorrectlyReceived(packetDropped)
attr title "packet drop: incorrectly received, vector(packetBytes)"
620	15216032 91 225935 690578 16.820108852233 61.858151645473 3 56 140 252 25872
vector 621 FanetGpsr.host[1].wlan[0].mac packetDropIncorrectlyReceived:vector(packetBytes) ETV
attr interpolationmode none
attr source packetDropReasonIsIncorrectlyReceived(packetDropped)
attr title "packet drop: incorrectly received, vector(packetBytes)"
621	15216123 60 225937 320576 16.820108866305 24.135445039214 2 56 56 112 6272
vector 622 FanetGpsr.host[22].wlan[0].mac packetDropIncorrectlyReceived:vector(packetBytes) ETV
attr interpolationmode none
attr source packetDropReasonIsIncorrectlyReceived(packetDropped)
attr title "packet drop: incorrectly received, vector(packetBytes)"
622	15216183 90 225939 690532 16.820108868168 61.858150967375 3 56 140 252 25872
vector 623 FanetGpsr.host[6].wlan[0].mac packetDropIncorrectlyReceived:vector(packetBytes) ETV
attr interpolationmode none
attr source packetDropReasonIsIncorrectlyReceived(packetDropped)
attr title "packet drop: incorrectly received, vector(packetBytes)"
623	15216273 91 225941 690534 16.820108900725 61.858150985267 3 56 140 252 25872
623	25038115 32 1123744 1123744 112.598308989939 112.598308989939 1 56 56 56 3136
vector 624 FanetGpsr.host[49].wlan[0].mac packetDropIncorrectlyReceived:vector(packetBytes) ETV
attr interpolationmode none
attr source packetDropReasonIsIncorrectlyReceived(packetDropped)
attr title "packet drop: incorrectly received, vector(packetBytes)"
624	15216364 91 225943 690573 16.820108903349 61.858151555356 3 56 140 252 25872
vector 625 FanetGpsr.host[39].wlan[0].mac packetDropIncorrectlyReceived:vector(packetBytes) ETV
attr interpolationmode none
attr source packetDropReasonIsIncorrectlyReceived(packetDropped)
attr title "packet drop: incorrectly received, vector(packetBytes)"
625	15216455 91 225945 690551 16.820108903847 61.858151304694 3 56 140 252 25872
vector 626 FanetGpsr.host[24].wlan[0].mac packetDropIncorrectlyReceived:vector(packetBytes) ETV
attr interpolationmode none
attr source packetDropReasonIsIncorrectlyReceived(packetDropped)
attr title "packet drop: incorrectly received, vector(packetBytes)"
626	15216546 90 225947 420322 16.820108907637 32.989756216675 3 56 56 168 9408
vector 627 FanetGpsr.host[16].wlan[0].mac packetDropIncorrectlyReceived:vector(packetBytes) ETV
attr interpolationmode none
attr source packetDropReasonIsIncorrectlyReceived(packetDropped)
attr title "packet drop: incorrectly received, vector(packetBytes)"
627	15216636 90 225949 690560 16.82010892088 61.858151385951 3 56 140 252 25872
627	25038147 30 888065 888065 83.924669902441 83.924669902441 1 56 56 56 3136
vector 628 FanetGpsr.host[5].wlan[0].mac packetDropIncorrectlyReceived:vector(packetBytes) ETV
attr interpolationmode none
attr source packetDropReasonIsIncorrectlyReceived(packetDropped)
attr title "packet drop: incorrectly received, vector(packetBytes)"
628	15216726 30 225951 225951 16.820108937162 16.820108937162 1 56 56 56 3136
vector 629 FanetGpsr.host[3].wlan[0].mac packetDropIncorrectlyReceived:vector(packetBytes) ETV
attr interpolationmode none
attr source packetDropReasonIsIncorrectlyReceived(packetDropped)
attr title "packet drop: incorrectly received, vector(packetBytes)"
629	15216756 89 225953 420316 16.820108947208 32.989756214705 3 56 56 168 9408
vector 630 FanetGpsr.host[44].wlan[0].mac packetDropIncorrectlyReceived:vector(packetBytes) ETV
attr interpolationmode none
attr source packetDropReasonIsIncorrectlyReceived(packetDropped)
attr title "packet drop: incorrectly received, vector(packetBytes)"
630	15216845 90 225955 690568 16.820108950867 61.85815154238 3 56 140 252 25872
vector 631 FanetGpsr.host[40].wlan[0].mac packetDropIncorrectlyReceived:vector(packetBytes) ETV
attr interpolationmode none
attr source packetDropReasonIsIncorrectlyReceived(packetDropped)
attr title "packet drop: incorrectly received, vector(packetBytes)"
631	15216935 89 225957 420310 16.820108970754 32.989756190787 3 56 56 168 9408
631	25038177 32 1407005 1407005 148.011189102076 148.011189102076 1 56 56 56 3136
vector 632 FanetGpsr.host[21].wlan[0].mac packetDropIncorrectlyReceived:vector(packetBytes) ETV
attr interpolationmode none
attr source packetDropReasonIsIncorrectlyReceived(packetDropped)
attr title "packet drop: incorrectly received, vector(packetBytes)"
632	15217024 59 225959 420352 16.82010897364 32.989756433005 2 56 56 112 6272
vector 633 FanetGpsr.host[48].wlan[0].mac packetDropIncorrectlyReceived:vector(packetBytes) ETV
attr interpolationmode none
attr source packetDropReasonIsIncorrectlyReceived(packetDropped)
attr title "packet drop: incorrectly received, vector(packetBytes)"
633	15217083 60 225961 420380 16.820108980827 32.989756527999 2 56 56 112 6272
vector 634 FanetGpsr.host[38].wlan[0].mac packetDropIncorrectlyReceived:vector(packetBytes) ETV
attr interpolationmode none
attr source packetDropReasonIsIncorrectlyReceived(packetDropped)
attr title "packet drop: incorrectly received, vector(packetBytes)"
634	15217143 60 225963 420358 16.820108982748 32.989756442744 2 56 56 112 6272
vector 635 FanetGpsr.host[28].wlan[0].mac packetDropIncorrectlyReceived:vector(packetBytes) ETV
attr interpolationmode none
attr source packetDropReasonIsIncorrectlyReceived(packetDropped)
attr title "packet drop: incorrectly received, vector(packetBytes)"
635	15217203 91 225965 690555 16.820108987463 61.858151317543 3 56 140 252 25872
635	25038209 30 888067 888067 83.924669923406 83.924669923406 1 56 56 56 3136
vector 636 FanetGpsr.host[29].wlan[0].mac packetDropIncorrectlyReceived:vector(packetBytes) ETV
attr interpolationmode none
attr source packetDropReasonIsIncorrectlyReceived(packetDropped)
attr title "packet drop: incorrectly received, vector(packetBytes)"
636	15217294 60 225971 690539 16.820108994803 61.85815110472 2 56 140 196 22736
636	25038239 62 888055 1407015 83.924669814852 148.011189470093 2 56 56 112 6272
vector 637 FanetGpsr.host[33].wlan[0].mac packetDropIncorrectlyReceived:vector(packetBytes) ETV
attr interpolationmode none
attr source packetDropReasonIsIncorrectlyReceived(packetDropped)
attr title "packet drop: incorrectly received, vector(packetBytes)"
637	15217354 89 225973 420382 16.820109005481 32.98975654258 3 56 56 168 9408
vector 638 FanetGpsr.host[20].wlan[0].mac packetDropIncorrectlyReceived:vector(packetBytes) ETV
attr interpolationmode none
attr source packetDropReasonIsIncorrectlyReceived(packetDropped)
attr title "packet drop: incorrectly received, vector(packetBytes)"
638	15217443 30 225975 225975 16.820109017457 16.820109017457 1 56 56 56 3136
vector 639 FanetGpsr.host[27].wlan[0].mac packetDropIncorrectlyReceived:vector(packetBytes) ETV
attr interpolationmode none
attr source packetDropReasonIsIncorrectlyReceived(packetDropped)
attr title "packet drop: incorrectly received, vector(packetBytes)"
639	15217473 60 225977 690544 16.82010902979 61.858151201701 2 56 140 196 22736
vector 640 FanetGpsr.host[11].wlan[0].mac packetDropIncorrectlyReceived:vector(packetBytes) ETV
attr interpolationmode none
attr source packetDropReasonIsIncorrectlyReceived(packetDropped)
attr title "packet drop: incorrectly received, vector(packetBytes)"
640	15217533 29 225979 225979 16.82010905268 16.82010905268 1 56 56 56 3136
vector 641 FanetGpsr.host[12].wlan[0].mac packetDropIncorrectlyReceived:vector(packetBytes) ETV
attr interpolationmode none
attr source packetDropReasonIsIncorrectlyReceived(packetDropped)
attr title "packet drop: incorrectly received, vector(packetBytes)"
641	15217562 60 225981 420360 16.820109057104 32.989756456858 2 56 56 112 6272
vector 642 FanetGpsr.host[7].wlan[0].mac packetDropIncorrectlyReceived:vector(packetBytes) ETV
attr interpolationmode none
attr source packetDropReasonIsIncorrectlyReceived(packetDropped)
attr title "packet drop: incorrectly received, vector(packetBytes)"
642	15217622 61 225983 690542 16.820109084164 61.858151171157 2 56 140 196 22736
642	25038301 30 888035 888035 83.924669651682 83.924669651682 1 56 56 56 3136
vector 643 FanetGpsr.host[0].wlan[0].mac packetDropIncorrectlyReceived:vector(packetBytes) ETV
attr interpolationmode none
attr source packetDropReasonIsIncorrectlyReceived(packetDropped)
attr title "packet drop: incorrectly received, vector(packetBytes)"
643	15217683 90 225985 420384 16.820109098385 32.989756581562 3 56 56 168 9408
vector 644 FanetGpsr.host[47].wlan[0].mac packetDropIncorrectlyReceived:vector(packetBytes) ETV
attr interpolationmode none
attr source packetDropReasonIsIncorrectlyReceived(packetDropped)
attr title "packet drop: incorrectly received, vector(packetBytes)"
644	15217773 30 225987 225987 16.820109115626 16.820109115626 1 56 56 56 3136
vector 645 FanetGpsr.host[14].wlan[0].mac packetDropIncorrectlyReceived:vector(packetBytes) ETV
attr interpolationmode none
attr source packetDropReasonIsIncorrectlyReceived(packetDropped)
attr title "packet drop: incorrectly received, vector(packetBytes)"
645	15217803 60 225989 320675 16.820109136887 24.135445417873 2 56 56 112 6272
vector 646 FanetGpsr.host[45].wlan[0].mac packetDropIncorrectlyReceived:vector(packetBytes) ETV
attr interpolationmode none
attr source packetDropReasonIsIncorrectlyReceived(packetDropped)
attr title "packet drop: incorrectly received, vector(packetBytes)"
646	15217863 90 225991 420364 16.820109193916 32.989756501633 3 56 56 168 9408
vector 647 FanetGpsr.host[4].wlan[0].mac packetDropIncorrectlyReceived:vector(packetBytes) ETV
attr interpolationmode none
attr source packetDropReasonIsIncorrectlyReceived(packetDropped)
attr title "packet drop: incorrectly received, vector(packetBytes)"
647	15217953 60 225993 320691 16.820109211115 24.135445515058 2 56 56 112 6272
vector 648 FanetGpsr.host[32].wlan[0].mac packetDropIncorrectlyReceived:vector(packetBytes) ETV
attr interpolationmode none
attr source packetDropReasonIsIncorrectlyReceived(packetDropped)
attr title "packet drop: incorrectly received, vector(packetBytes)"
648	15218013 30 225995 225995 16.820109240896 16.820109240896 1 56 56 56 3136
vector 649 FanetGpsr.host[25].wlan[0].mac packetDropIncorrectlyReceived:vector(packetBytes) ETV
attr interpolationmode none
attr source packetDropReasonIsIncorrectlyReceived(packetDropped)
attr title "packet drop: incorrectly received, vector(packetBytes)"
649	15218043 60 225997 320689 16.820109264277 24.135445506874 2 56 56 112 6272
vector 650 FanetGpsr.host[46].wlan[0].mac packetDropIncorrectlyReceived:vector(packetBytes) ETV
attr interpolationmode none
attr source packetDropReasonIsIncorrectlyReceived(packetDropped)
attr title "packet drop: incorrectly received, vector(packetBytes)"
650	15218103 30 225999 225999 16.820109277606 16.820109277606 1 56 56 56 3136
vector 651 FanetGpsr.host[8].wlan[0].mac packetDropIncorrectlyReceived:vector(packetBytes) ETV
attr interpolationmode none
attr source packetDropReasonIsIncorrectlyReceived(packetDropped)
attr title "packet drop: incorrectly received, vector(packetBytes)"
651	15218133 59 226001 320693 16.820109289128 24.13544553211 2 56 56 112 6272
vector 652 FanetGpsr.host[15].wlan[0].mac packetDropIncorrectlyReceived:vector(packetBytes) ETV
attr interpolationmode none
attr source packetDropReasonIsIncorrectlyReceived(packetDropped)
attr title "packet drop: incorrectly received, vector(packetBytes)"
652	15218192 30 226003 226003 16.820109327469 16.820109327469 1 56 56 56 3136
vector 653 FanetGpsr.host[34].wlan[0].mac packetDropIncorrectlyReceived:vector(packetBytes) ETV
attr interpolationmode none
attr source packetDropReasonIsIncorrectlyReceived(packetDropped)
attr title "packet drop: incorrectly received, vector(packetBytes)"
653	15218222 31 690546 690546 61.858151211807 61.858151211807 1 140 140 140 19600
653	25038331 31 888049 888049 83.924669801901 83.924669801901 1 56 56 56 3136
vector 654 FanetGpsr.host[31].wlan[0].mac packetDropIncorrectlyReceived:vector(packetBytes) ETV
attr interpolationmode none
attr source packetDropReasonIsIncorrectlyReceived(packetDropped)
attr title "packet drop: incorrectly received, vector(packetBytes)"
654	15218253 31 690565 690565 61.858151502988 61.858151502988 1 140 140 140 19600
