file 4543197 1631558560                                         
version 2
run _3D_Turtle_Secure-0-20210913-18:41:04-8520
attr configname _3D_Turtle_Secure
attr datetime 20210913-18:41:04
attr experiment _3D_Turtle_Secure
attr inifile omnetpp.ini
attr iterationvars ""
attr iterationvarsf ""
attr measurement ""
attr network FanetGpsrSecure
attr processid 8520
attr repetition 0
attr replication #0
attr resultdir results
attr runnumber 0
attr seedset 0
param *.host[*].osgModel "\"3d/drone.ive.100.scale.0,0,90.rot\""
param *.sybil[*].osgModel "\"3d/glider.osgb.100.scale.0,0,90.rot\""
param *.grayhole[*].osgModel "\"3d/glider.osgb.100.scale.0,0,90.rot\""
param *.host*.mobility.typename "\"TurtleMobility\""
param *.host*.mobility.turtleScript "xmldoc(\"config.xml\")"
param *.sybil*.mobility.typename "\"TurtleMobility\""
param *.sybil*.mobility.turtleScript "xmldoc(\"config.xml\")"
param *.grayhole*.mobility.typename "\"TurtleMobility\""
param *.grayhole*.mobility.turtleScript "xmldoc(\"config.xml\")"
param *.grayhole[0].numApps 1
param *.grayhole[0].app[0].typename "\"UdpBasicApp\""
param *.grayhole[0].app[0].destAddresses "\"grayhole[20]\""
param *.grayhole[0].app[0].destPort 5000
param *.grayhole[0].app[0].messageLength 1000B
param *.grayhole[0].app[0].sendInterval 1s
param *.grayhole[0].app[0].packetName "\"UDPData\""
param *.grayhole[20].numApps 1
param *.grayhole[20].app[0].typename "\"UdpSink\""
param *.grayhole[20].app[0].localPort 5000
param **.wlan[*].bitrate 24Mbps
param *.configurator.addStaticRoutes false
param **.netmaskRoutes "\"\""
param **.arp.typename "\"GlobalArp\""
param **.planarizationMode "\"RNG\""
param **.beaconInterval 1s
param *.host*.wlan[0].typename "\"AckingWirelessInterface\""
param *.host*.wlan[0].radio.transmitter.communicationRange 300m
param *.sybil*.wlan[0].typename "\"AckingWirelessInterface\""
param *.sybil*.wlan[0].radio.transmitter.communicationRange 300m
param *.grayhole*.wlan[0].typename "\"AckingWirelessInterface\""
param *.grayhole*.wlan[0].radio.transmitter.communicationRange 300m
param *.visualizer.osgVisualizer.typename "\"IntegratedOsgVisualizer\""
param *.visualizer.osgVisualizer.sceneVisualizer.typename "\"SceneOsgEarthVisualizer\""
param *.visualizer.osgVisualizer.sceneVisualizer.mapFile "\"unical.earth\""
param *.coordinateSystem.sceneLongitude 16.2215deg
param *.coordinateSystem.sceneLatitude 39.3701deg
param *.visualizer.osgVisualizer.sceneVisualizer.clearColor "\"skyblue\""
param *.visualizer.osgVisualizer.sceneVisualizer.sceneShading false
param *.visualizer.osgVisualizer.sceneVisualizer.sceneColor "\"#000000\""
param *.visualizer.osgVisualizer.sceneVisualizer.sceneOpacity 0.0
param *.visualizer.osgVisualizer.sceneVisualizer.sceneImageSize 4000m
param *.visualizer.osgVisualizer.sceneVisualizer.axisLength 2000m
param *.visualizer.osgVisualizer.sceneVisualizer.sceneMinX 0m
param *.visualizer.osgVisualizer.sceneVisualizer.sceneMinY 0m
param *.visualizer.osgVisualizer.sceneVisualizer.sceneMinZ 0m
param *.visualizer.osgVisualizer.sceneVisualizer.sceneMaxX 1700m
param *.visualizer.osgVisualizer.sceneVisualizer.sceneMaxY 300m
param *.visualizer.osgVisualizer.sceneVisualizer.sceneMaxZ 20m
param *.coordinateSystem.sceneAltitude 20m
param *.coordinateSystem.sceneHeading 169deg
param *.visualizer.osgVisualizer.networkNodeVisualizer.displayModuleName false
param *.visualizer.*.mobilityVisualizer.displayMobility true
param *.visualizer.*.mobilityVisualizer.displayPositions true
param *.visualizer.*.mobilityVisualizer.displayOrientations true
param *.visualizer.*.mobilityVisualizer.displayVelocities true
param *.visualizer.*.mobilityVisualizer.displayMovementTrails true
param *.visualizer.*.mobilityVisualizer.animationSpeed 1
param **.constraintAreaMinX 0m
param **.constraintAreaMinY 0m
param **.constraintAreaMinZ 200m
param **.constraintAreaMaxX 1500m
param **.constraintAreaMaxY 800m
param **.constraintAreaMaxZ 400m

vector 0 FanetGpsrSecure.grayhole[0].wlan[0].radio radioMode:vector ETV
attr interpolationmode sample-hold
attr source radioModeChanged
attr title "Radio mode, vector"
0	101852 27 0 0 0 0 3 0 4 4 16
vector 1 FanetGpsrSecure.grayhole[1].wlan[0].radio radioMode:vector ETV
attr interpolationmode sample-hold
attr source radioModeChanged
attr title "Radio mode, vector"
1	101879 27 0 0 0 0 3 0 4 4 16
vector 2 FanetGpsrSecure.grayhole[2].wlan[0].radio radioMode:vector ETV
attr interpolationmode sample-hold
attr source radioModeChanged
attr title "Radio mode, vector"
2	101906 27 0 0 0 0 3 0 4 4 16
vector 3 FanetGpsrSecure.grayhole[3].wlan[0].radio radioMode:vector ETV
attr interpolationmode sample-hold
attr source radioModeChanged
attr title "Radio mode, vector"
3	101933 27 0 0 0 0 3 0 4 4 16
vector 4 FanetGpsrSecure.grayhole[4].wlan[0].radio radioMode:vector ETV
attr interpolationmode sample-hold
attr source radioModeChanged
attr title "Radio mode, vector"
4	101960 27 0 0 0 0 3 0 4 4 16
vector 5 FanetGpsrSecure.grayhole[5].wlan[0].radio radioMode:vector ETV
attr interpolationmode sample-hold
attr source radioModeChanged
attr title "Radio mode, vector"
5	101987 27 0 0 0 0 3 0 4 4 16
vector 6 FanetGpsrSecure.grayhole[6].wlan[0].radio radioMode:vector ETV
attr interpolationmode sample-hold
attr source radioModeChanged
attr title "Radio mode, vector"
6	102014 27 0 0 0 0 3 0 4 4 16
vector 7 FanetGpsrSecure.grayhole[7].wlan[0].radio radioMode:vector ETV
attr interpolationmode sample-hold
attr source radioModeChanged
attr title "Radio mode, vector"
7	102041 27 0 0 0 0 3 0 4 4 16
vector 8 FanetGpsrSecure.grayhole[8].wlan[0].radio radioMode:vector ETV
attr interpolationmode sample-hold
attr source radioModeChanged
attr title "Radio mode, vector"
8	102068 27 0 0 0 0 3 0 4 4 16
vector 9 FanetGpsrSecure.grayhole[9].wlan[0].radio radioMode:vector ETV
attr interpolationmode sample-hold
attr source radioModeChanged
attr title "Radio mode, vector"
9	102095 27 0 0 0 0 3 0 4 4 16
vector 10 FanetGpsrSecure.grayhole[10].wlan[0].radio radioMode:vector ETV
attr interpolationmode sample-hold
attr source radioModeChanged
attr title "Radio mode, vector"
10	102122 30 0 0 0 0 3 0 4 4 16
vector 11 FanetGpsrSecure.grayhole[11].wlan[0].radio radioMode:vector ETV
attr interpolationmode sample-hold
attr source radioModeChanged
attr title "Radio mode, vector"
11	102152 30 0 0 0 0 3 0 4 4 16
vector 12 FanetGpsrSecure.grayhole[12].wlan[0].radio radioMode:vector ETV
attr interpolationmode sample-hold
attr source radioModeChanged
attr title "Radio mode, vector"
12	102182 30 0 0 0 0 3 0 4 4 16
vector 13 FanetGpsrSecure.grayhole[13].wlan[0].radio radioMode:vector ETV
attr interpolationmode sample-hold
attr source radioModeChanged
attr title "Radio mode, vector"
13	102212 30 0 0 0 0 3 0 4 4 16
vector 14 FanetGpsrSecure.grayhole[14].wlan[0].radio radioMode:vector ETV
attr interpolationmode sample-hold
attr source radioModeChanged
attr title "Radio mode, vector"
14	102242 30 0 0 0 0 3 0 4 4 16
vector 15 FanetGpsrSecure.grayhole[15].wlan[0].radio radioMode:vector ETV
attr interpolationmode sample-hold
attr source radioModeChanged
attr title "Radio mode, vector"
15	102272 30 0 0 0 0 3 0 4 4 16
vector 16 FanetGpsrSecure.grayhole[16].wlan[0].radio radioMode:vector ETV
attr interpolationmode sample-hold
attr source radioModeChanged
attr title "Radio mode, vector"
16	102302 30 0 0 0 0 3 0 4 4 16
vector 17 FanetGpsrSecure.grayhole[17].wlan[0].radio radioMode:vector ETV
attr interpolationmode sample-hold
attr source radioModeChanged
attr title "Radio mode, vector"
17	102332 30 0 0 0 0 3 0 4 4 16
vector 18 FanetGpsrSecure.grayhole[18].wlan[0].radio radioMode:vector ETV
attr interpolationmode sample-hold
attr source radioModeChanged
attr title "Radio mode, vector"
18	102362 30 0 0 0 0 3 0 4 4 16
vector 19 FanetGpsrSecure.grayhole[19].wlan[0].radio radioMode:vector ETV
attr interpolationmode sample-hold
attr source radioModeChanged
attr title "Radio mode, vector"
19	102392 30 0 0 0 0 3 0 4 4 16
vector 20 FanetGpsrSecure.grayhole[20].wlan[0].radio radioMode:vector ETV
attr interpolationmode sample-hold
attr source radioModeChanged
attr title "Radio mode, vector"
20	102422 30 0 0 0 0 3 0 4 4 16
vector 21 FanetGpsrSecure.grayhole[21].wlan[0].radio radioMode:vector ETV
attr interpolationmode sample-hold
attr source radioModeChanged
attr title "Radio mode, vector"
21	102452 30 0 0 0 0 3 0 4 4 16
vector 22 FanetGpsrSecure.grayhole[22].wlan[0].radio radioMode:vector ETV
attr interpolationmode sample-hold
attr source radioModeChanged
attr title "Radio mode, vector"
22	102482 30 0 0 0 0 3 0 4 4 16
vector 23 FanetGpsrSecure.grayhole[23].wlan[0].radio radioMode:vector ETV
attr interpolationmode sample-hold
attr source radioModeChanged
attr title "Radio mode, vector"
23	102512 30 0 0 0 0 3 0 4 4 16
vector 24 FanetGpsrSecure.grayhole[24].wlan[0].radio radioMode:vector ETV
attr interpolationmode sample-hold
attr source radioModeChanged
attr title "Radio mode, vector"
24	102542 30 0 0 0 0 3 0 4 4 16
vector 25 FanetGpsrSecure.grayhole[25].wlan[0].radio radioMode:vector ETV
attr interpolationmode sample-hold
attr source radioModeChanged
attr title "Radio mode, vector"
25	102572 30 0 0 0 0 3 0 4 4 16
vector 26 FanetGpsrSecure.grayhole[26].wlan[0].radio radioMode:vector ETV
attr interpolationmode sample-hold
attr source radioModeChanged
attr title "Radio mode, vector"
26	102602 30 0 0 0 0 3 0 4 4 16
vector 27 FanetGpsrSecure.grayhole[27].wlan[0].radio radioMode:vector ETV
attr interpolationmode sample-hold
attr source radioModeChanged
attr title "Radio mode, vector"
27	102632 30 0 0 0 0 3 0 4 4 16
vector 28 FanetGpsrSecure.grayhole[28].wlan[0].radio radioMode:vector ETV
attr interpolationmode sample-hold
attr source radioModeChanged
attr title "Radio mode, vector"
28	102662 30 0 0 0 0 3 0 4 4 16
vector 29 FanetGpsrSecure.grayhole[29].wlan[0].radio radioMode:vector ETV
attr interpolationmode sample-hold
attr source radioModeChanged
attr title "Radio mode, vector"
29	102692 30 0 0 0 0 3 0 4 4 16
vector 30 FanetGpsrSecure.grayhole[30].wlan[0].radio radioMode:vector ETV
attr interpolationmode sample-hold
attr source radioModeChanged
attr title "Radio mode, vector"
30	102722 30 0 0 0 0 3 0 4 4 16
vector 31 FanetGpsrSecure.grayhole[31].wlan[0].radio radioMode:vector ETV
attr interpolationmode sample-hold
attr source radioModeChanged
attr title "Radio mode, vector"
31	102752 30 0 0 0 0 3 0 4 4 16
vector 32 FanetGpsrSecure.grayhole[32].wlan[0].radio radioMode:vector ETV
attr interpolationmode sample-hold
attr source radioModeChanged
attr title "Radio mode, vector"
32	102782 30 0 0 0 0 3 0 4 4 16
vector 33 FanetGpsrSecure.grayhole[33].wlan[0].radio radioMode:vector ETV
attr interpolationmode sample-hold
attr source radioModeChanged
attr title "Radio mode, vector"
33	102812 30 0 0 0 0 3 0 4 4 16
vector 34 FanetGpsrSecure.grayhole[34].wlan[0].radio radioMode:vector ETV
attr interpolationmode sample-hold
attr source radioModeChanged
attr title "Radio mode, vector"
34	102842 30 0 0 0 0 3 0 4 4 16
vector 35 FanetGpsrSecure.grayhole[35].wlan[0].radio radioMode:vector ETV
attr interpolationmode sample-hold
attr source radioModeChanged
attr title "Radio mode, vector"
35	102872 30 0 0 0 0 3 0 4 4 16
vector 36 FanetGpsrSecure.grayhole[36].wlan[0].radio radioMode:vector ETV
attr interpolationmode sample-hold
attr source radioModeChanged
attr title "Radio mode, vector"
36	102902 30 0 0 0 0 3 0 4 4 16
vector 37 FanetGpsrSecure.grayhole[37].wlan[0].radio radioMode:vector ETV
attr interpolationmode sample-hold
attr source radioModeChanged
attr title "Radio mode, vector"
37	102932 30 0 0 0 0 3 0 4 4 16
vector 38 FanetGpsrSecure.grayhole[38].wlan[0].radio radioMode:vector ETV
attr interpolationmode sample-hold
attr source radioModeChanged
attr title "Radio mode, vector"
38	102962 30 0 0 0 0 3 0 4 4 16
vector 39 FanetGpsrSecure.grayhole[39].wlan[0].radio radioMode:vector ETV
attr interpolationmode sample-hold
attr source radioModeChanged
attr title "Radio mode, vector"
39	102992 30 0 0 0 0 3 0 4 4 16
vector 40 FanetGpsrSecure.grayhole[0].wlan[0].radio receptionState:vector ETV
attr interpolationmode sample-hold
attr source receptionStateChanged
attr title "Radio reception state, vector"
40	103022 50856 0 438506 0 90.794532461322 1783 1 3 3565 8911
vector 41 FanetGpsrSecure.grayhole[0].wlan[0].radio transmissionState:vector ETV
attr interpolationmode sample-hold
attr source transmissionStateChanged
attr title "Radio transmission state, vector"
41	153878 9189 0 434914 0 90.000365333333 363 1 2 544 906
vector 42 FanetGpsrSecure.grayhole[1].wlan[0].radio receptionState:vector ETV
attr interpolationmode sample-hold
attr source receptionStateChanged
attr title "Radio reception state, vector"
42	163067 69265 0 438635 0 90.849718400604 2425 1 3 4849 12121
vector 43 FanetGpsrSecure.grayhole[1].wlan[0].radio transmissionState:vector ETV
attr interpolationmode sample-hold
attr source transmissionStateChanged
attr title "Radio transmission state, vector"
43	232332 5318 0 437386 0 90.490525577818 187 1 2 280 466
vector 44 FanetGpsrSecure.grayhole[2].wlan[0].radio receptionState:vector ETV
attr interpolationmode sample-hold
attr source receptionStateChanged
attr title "Radio reception state, vector"
44	237650 25413 0 437411 0 90.490526267625 887 1 3 1773 4431
vector 45 FanetGpsrSecure.grayhole[2].wlan[0].radio transmissionState:vector ETV
attr interpolationmode sample-hold
attr source transmissionStateChanged
attr title "Radio transmission state, vector"
45	263063 4916 0 434663 0 89.956469380436 173 1 2 259 431
vector 46 FanetGpsrSecure.grayhole[3].wlan[0].radio receptionState:vector ETV
attr interpolationmode sample-hold
attr source receptionStateChanged
attr title "Radio reception state, vector"
46	267979 76544 0 438722 0 90.851863901634 2682 1 3 5364 13410
vector 47 FanetGpsrSecure.grayhole[3].wlan[0].radio transmissionState:vector ETV
attr interpolationmode sample-hold
attr source transmissionStateChanged
attr title "Radio transmission state, vector"
47	344523 5197 0 438630 0 90.849717891679 183 1 2 274 456
vector 48 FanetGpsrSecure.grayhole[4].wlan[0].radio receptionState:vector ETV
attr interpolationmode sample-hold
attr source receptionStateChanged
attr title "Radio reception state, vector"
48	349720 26365 0 438116 0 90.689256786157 925 1 3 1849 4621
vector 49 FanetGpsrSecure.grayhole[4].wlan[0].radio transmissionState:vector ETV
attr interpolationmode sample-hold
attr source transmissionStateChanged
attr title "Radio transmission state, vector"
49	376085 5211 0 434326 0 89.870191170968 183 1 2 274 456
vector 50 FanetGpsrSecure.grayhole[5].wlan[0].radio receptionState:vector ETV
attr interpolationmode sample-hold
attr source receptionStateChanged
attr title "Radio reception state, vector"
50	381296 53560 0 438757 0 90.851886080771 1871 1 3 3741 9351
vector 51 FanetGpsrSecure.grayhole[5].wlan[0].radio transmissionState:vector ETV
attr interpolationmode sample-hold
attr source transmissionStateChanged
attr title "Radio transmission state, vector"
51	434856 6134 0 437773 0 90.603836451095 215 1 2 322 536
vector 52 FanetGpsrSecure.grayhole[6].wlan[0].radio receptionState:vector ETV
attr interpolationmode sample-hold
attr source receptionStateChanged
attr title "Radio reception state, vector"
52	440990 67315 0 438781 0 90.851886410089 2361 1 3 4721 11801
vector 53 FanetGpsrSecure.grayhole[6].wlan[0].radio transmissionState:vector ETV
attr interpolationmode sample-hold
attr source transmissionStateChanged
attr title "Radio transmission state, vector"
53	508305 5203 0 435929 0 90.136552803362 183 1 2 274 456
vector 54 FanetGpsrSecure.grayhole[7].wlan[0].radio receptionState:vector ETV
attr interpolationmode sample-hold
attr source receptionStateChanged
attr title "Radio reception state, vector"
54	513508 76587 0 438769 0 90.851886288637 2685 1 3 5369 13421
vector 55 FanetGpsrSecure.grayhole[7].wlan[0].radio transmissionState:vector ETV
attr interpolationmode sample-hold
attr source transmissionStateChanged
attr title "Radio transmission state, vector"
55	590095 8500 0 435800 0 90.114705126173 299 1 2 448 746
vector 56 FanetGpsrSecure.grayhole[8].wlan[0].radio receptionState:vector ETV
attr interpolationmode sample-hold
attr source receptionStateChanged
attr title "Radio reception state, vector"
56	598595 26959 0 437306 0 90.487483655392 947 1 3 1893 4731
vector 57 FanetGpsrSecure.grayhole[8].wlan[0].radio transmissionState:vector ETV
attr interpolationmode sample-hold
attr source transmissionStateChanged
attr title "Radio transmission state, vector"
57	625554 5031 0 436776 0 90.282829234517 177 1 2 265 441
vector 58 FanetGpsrSecure.grayhole[9].wlan[0].radio receptionState:vector ETV
attr interpolationmode sample-hold
attr source receptionStateChanged
attr title "Radio reception state, vector"
58	630585 71549 0 438659 0 90.849718680486 2513 1 3 5025 12561
vector 59 FanetGpsrSecure.grayhole[9].wlan[0].radio transmissionState:vector ETV
attr interpolationmode sample-hold
attr source transmissionStateChanged
attr title "Radio transmission state, vector"
59	702134 5024 0 435324 0 90.05061119343 177 1 2 265 441
vector 60 FanetGpsrSecure.grayhole[10].wlan[0].radio receptionState:vector ETV
attr interpolationmode sample-hold
attr source receptionStateChanged
attr title "Radio reception state, vector"
60	707158 43409 0 438514 0 90.794532520179 1516 1 3 3031 7575
vector 61 FanetGpsrSecure.grayhole[10].wlan[0].radio transmissionState:vector ETV
attr interpolationmode sample-hold
attr source transmissionStateChanged
attr title "Radio transmission state, vector"
61	750567 5192 0 437273 0 90.487482685501 183 1 2 274 456
vector 62 FanetGpsrSecure.grayhole[11].wlan[0].radio receptionState:vector ETV
attr interpolationmode sample-hold
attr source receptionStateChanged
attr title "Radio reception state, vector"
62	755759 57624 0 438765 0 90.851886156681 2019 1 3 4037 10091
vector 63 FanetGpsrSecure.grayhole[11].wlan[0].radio transmissionState:vector ETV
attr interpolationmode sample-hold
attr source transmissionStateChanged
attr title "Radio transmission state, vector"
63	813383 8023 0 438461 0 90.794531550168 283 1 2 424 706
vector 64 FanetGpsrSecure.grayhole[12].wlan[0].radio receptionState:vector ETV
attr interpolationmode sample-hold
attr source receptionStateChanged
attr title "Radio reception state, vector"
64	821406 31750 0 437030 0 90.379807794761 1113 1 3 2225 5561
vector 65 FanetGpsrSecure.grayhole[12].wlan[0].radio transmissionState:vector ETV
attr interpolationmode sample-hold
attr source transmissionStateChanged
attr title "Radio transmission state, vector"
65	853156 5368 0 434772 0 89.993922048154 189 1 2 283 471
vector 66 FanetGpsrSecure.grayhole[13].wlan[0].radio receptionState:vector ETV
attr interpolationmode sample-hold
attr source receptionStateChanged
attr title "Radio reception state, vector"
66	858524 26932 0 438373 0 90.784164350909 945 1 3 1889 4721
vector 67 FanetGpsrSecure.grayhole[13].wlan[0].radio transmissionState:vector ETV
attr interpolationmode sample-hold
attr source transmissionStateChanged
attr title "Radio transmission state, vector"
67	885456 5020 0 434562 0 89.950654267703 177 1 2 265 441
vector 68 FanetGpsrSecure.grayhole[14].wlan[0].radio receptionState:vector ETV
attr interpolationmode sample-hold
attr source receptionStateChanged
attr title "Radio reception state, vector"
68	890476 21190 0 437897 0 90.629593238421 743 1 3 1485 3711
vector 69 FanetGpsrSecure.grayhole[14].wlan[0].radio transmissionState:vector ETV
attr interpolationmode sample-hold
attr source transmissionStateChanged
attr title "Radio transmission state, vector"
69	911666 4857 0 432509 0 89.506366839304 171 1 2 256 426
vector 70 FanetGpsrSecure.grayhole[15].wlan[0].radio receptionState:vector ETV
attr interpolationmode sample-hold
attr source receptionStateChanged
attr title "Radio reception state, vector"
70	916523 27140 0 438679 0 90.849718885914 949 1 3 1897 4741
vector 71 FanetGpsrSecure.grayhole[15].wlan[0].radio transmissionState:vector ETV
attr interpolationmode sample-hold
attr source transmissionStateChanged
attr title "Radio transmission state, vector"
71	943663 5320 0 437165 0 90.43122717496 187 1 2 280 466
vector 72 FanetGpsrSecure.grayhole[16].wlan[0].radio receptionState:vector ETV
attr interpolationmode sample-hold
attr source receptionStateChanged
attr title "Radio reception state, vector"
72	948983 67149 0 438502 0 90.794532423415 2353 1 3 4705 11761
vector 73 FanetGpsrSecure.grayhole[16].wlan[0].radio transmissionState:vector ETV
attr interpolationmode sample-hold
attr source transmissionStateChanged
attr title "Radio transmission state, vector"
73	1016132 4974 0 437995 0 90.67316790591 175 1 2 262 436
vector 74 FanetGpsrSecure.grayhole[17].wlan[0].radio receptionState:vector ETV
attr interpolationmode sample-hold
attr source receptionStateChanged
attr title "Radio reception state, vector"
74	1021106 28386 0 436785 0 90.282830019679 997 1 3 1993 4981
vector 75 FanetGpsrSecure.grayhole[17].wlan[0].radio transmissionState:vector ETV
attr interpolationmode sample-hold
attr source transmissionStateChanged
attr title "Radio transmission state, vector"
75	1049492 5031 0 437029 0 90.379807562936 177 1 2 265 441
vector 76 FanetGpsrSecure.grayhole[18].wlan[0].radio receptionState:vector ETV
attr interpolationmode sample-hold
attr source receptionStateChanged
attr title "Radio reception state, vector"
76	1054523 8837 0 437632 0 90.585567610477 311 1 3 621 1551
vector 77 FanetGpsrSecure.grayhole[18].wlan[0].radio transmissionState:vector ETV
attr interpolationmode sample-hold
attr source transmissionStateChanged
attr title "Radio transmission state, vector"
77	1063360 5156 0 433163 0 89.654242358306 181 1 2 271 451
vector 78 FanetGpsrSecure.grayhole[19].wlan[0].radio receptionState:vector ETV
attr interpolationmode sample-hold
attr source receptionStateChanged
attr title "Radio reception state, vector"
78	1068516 12954 0 438120 0 90.689257107069 457 1 3 913 2281
vector 79 FanetGpsrSecure.grayhole[19].wlan[0].radio transmissionState:vector ETV
attr interpolationmode sample-hold
attr source transmissionStateChanged
attr title "Radio transmission state, vector"
79	1081470 5035 0 437499 0 90.496176861597 177 1 2 265 441
vector 80 FanetGpsrSecure.grayhole[20].wlan[0].radio receptionState:vector ETV
attr interpolationmode sample-hold
attr source receptionStateChanged
attr title "Radio reception state, vector"
80	1086505 40658 0 438675 0 90.849718874264 1423 1 3 2845 7111
vector 81 FanetGpsrSecure.grayhole[20].wlan[0].radio transmissionState:vector ETV
attr interpolationmode sample-hold
attr source transmissionStateChanged
attr title "Radio transmission state, vector"
81	1127163 5490 0 438752 0 90.851885585716 193 1 2 289 481
vector 82 FanetGpsrSecure.grayhole[21].wlan[0].radio receptionState:vector ETV
attr interpolationmode sample-hold
attr source receptionStateChanged
attr title "Radio reception state, vector"
82	1132653 22534 0 437913 0 90.629593784431 791 1 3 1581 3951
vector 83 FanetGpsrSecure.grayhole[21].wlan[0].radio transmissionState:vector ETV
attr interpolationmode sample-hold
attr source transmissionStateChanged
attr title "Radio transmission state, vector"
83	1155187 5035 0 434426 0 89.897873588284 177 1 2 265 441
vector 84 FanetGpsrSecure.grayhole[22].wlan[0].radio receptionState:vector ETV
attr interpolationmode sample-hold
attr source receptionStateChanged
attr title "Radio reception state, vector"
84	1160222 25681 0 437644 0 90.58556779107 901 1 3 1801 4501
vector 85 FanetGpsrSecure.grayhole[22].wlan[0].radio transmissionState:vector ETV
attr interpolationmode sample-hold
attr source transmissionStateChanged
attr title "Radio transmission state, vector"
85	1185903 5152 0 438115 0 90.689256596519 181 1 2 271 451
vector 86 FanetGpsrSecure.grayhole[23].wlan[0].radio receptionState:vector ETV
attr interpolationmode sample-hold
attr source receptionStateChanged
attr title "Radio reception state, vector"
86	1191055 37389 0 437407 0 90.490526242222 1313 1 3 2625 6561
vector 87 FanetGpsrSecure.grayhole[23].wlan[0].radio transmissionState:vector ETV
attr interpolationmode sample-hold
attr source transmissionStateChanged
attr title "Radio transmission state, vector"
87	1228444 5254 0 436519 0 90.184679278078 185 1 2 277 461
vector 88 FanetGpsrSecure.grayhole[24].wlan[0].radio receptionState:vector ETV
attr interpolationmode sample-hold
attr source receptionStateChanged
attr title "Radio reception state, vector"
88	1233698 52486 0 438510 0 90.794532489355 1839 1 3 3677 9191
vector 89 FanetGpsrSecure.grayhole[24].wlan[0].radio transmissionState:vector ETV
attr interpolationmode sample-hold
attr source transmissionStateChanged
attr title "Radio transmission state, vector"
89	1286184 4972 0 436915 0 90.311178405442 175 1 2 262 436
vector 90 FanetGpsrSecure.grayhole[25].wlan[0].radio receptionState:vector ETV
attr interpolationmode sample-hold
attr source receptionStateChanged
attr title "Radio reception state, vector"
90	1291156 51323 0 438651 0 90.84971861431 1801 1 3 3601 9001
vector 91 FanetGpsrSecure.grayhole[25].wlan[0].radio transmissionState:vector ETV
attr interpolationmode sample-hold
attr source transmissionStateChanged
attr title "Radio transmission state, vector"
91	1342479 5203 0 436665 0 90.231876098229 183 1 2 274 456
vector 92 FanetGpsrSecure.grayhole[26].wlan[0].radio receptionState:vector ETV
attr interpolationmode sample-hold
attr source receptionStateChanged
attr title "Radio reception state, vector"
92	1347682 59899 0 438773 0 90.851886301582 2099 1 3 4197 10491
vector 93 FanetGpsrSecure.grayhole[26].wlan[0].radio transmissionState:vector ETV
attr interpolationmode sample-hold
attr source transmissionStateChanged
attr title "Radio transmission state, vector"
93	1407581 5317 0 438213 0 90.696725493438 187 1 2 280 466
vector 94 FanetGpsrSecure.grayhole[27].wlan[0].radio receptionState:vector ETV
attr interpolationmode sample-hold
attr source receptionStateChanged
attr title "Radio reception state, vector"
94	1412898 23108 0 438369 0 90.784164254229 811 1 3 1621 4051
vector 95 FanetGpsrSecure.grayhole[27].wlan[0].radio transmissionState:vector ETV
attr interpolationmode sample-hold
attr source transmissionStateChanged
attr title "Radio transmission state, vector"
95	1436006 5202 0 433354 0 89.660668096644 183 1 2 274 456
vector 96 FanetGpsrSecure.grayhole[28].wlan[0].radio receptionState:vector ETV
attr interpolationmode sample-hold
attr source receptionStateChanged
attr title "Radio reception state, vector"
96	1441208 42799 0 438655 0 90.849718621157 1503 1 3 3005 7511
vector 97 FanetGpsrSecure.grayhole[28].wlan[0].radio transmissionState:vector ETV
attr interpolationmode sample-hold
attr source transmissionStateChanged
attr title "Radio transmission state, vector"
97	1484007 5197 0 436406 0 90.183503526401 183 1 2 274 456
vector 98 FanetGpsrSecure.grayhole[29].wlan[0].radio receptionState:vector ETV
attr interpolationmode sample-hold
attr source receptionStateChanged
attr title "Radio reception state, vector"
98	1489204 73452 0 438721 0 90.851863772658 2570 1 3 5140 12850
vector 99 FanetGpsrSecure.grayhole[29].wlan[0].radio transmissionState:vector ETV
attr interpolationmode sample-hold
attr source transmissionStateChanged
attr title "Radio transmission state, vector"
99	1562656 6370 0 436046 0 90.153486594927 223 1 2 334 556
vector 100 FanetGpsrSecure.grayhole[30].wlan[0].radio receptionState:vector ETV
attr interpolationmode sample-hold
attr source receptionStateChanged
attr title "Radio reception state, vector"
100	1569026 45405 0 437302 0 90.487483652334 1541 1 3 3081 7701
vector 101 FanetGpsrSecure.grayhole[30].wlan[0].radio transmissionState:vector ETV
attr interpolationmode sample-hold
attr source transmissionStateChanged
attr title "Radio transmission state, vector"
101	1614431 5268 0 432969 0 89.605802329163 179 1 2 268 446
vector 102 FanetGpsrSecure.grayhole[31].wlan[0].radio receptionState:vector ETV
attr interpolationmode sample-hold
attr source receptionStateChanged
attr title "Radio reception state, vector"
102	1619699 30130 0 438753 0 90.851885967122 1019 1 3 2037 5091
vector 103 FanetGpsrSecure.grayhole[31].wlan[0].radio transmissionState:vector ETV
attr interpolationmode sample-hold
attr source transmissionStateChanged
attr title "Radio transmission state, vector"
103	1649829 5386 0 433898 0 89.816294672569 183 1 2 274 456
vector 104 FanetGpsrSecure.grayhole[32].wlan[0].radio receptionState:vector ETV
attr interpolationmode sample-hold
attr source receptionStateChanged
attr title "Radio reception state, vector"
104	1655215 44985 0 438032 0 90.67316882253 1521 1 3 3041 7601
vector 105 FanetGpsrSecure.grayhole[32].wlan[0].radio transmissionState:vector ETV
attr interpolationmode sample-hold
attr source transmissionStateChanged
attr title "Radio transmission state, vector"
105	1700200 5440 0 436285 0 90.172358784029 185 1 2 277 461
vector 106 FanetGpsrSecure.grayhole[33].wlan[0].radio receptionState:vector ETV
attr interpolationmode sample-hold
attr source receptionStateChanged
attr title "Radio reception state, vector"
106	1705640 52742 0 438761 0 90.851886129282 1783 1 3 3565 8911
vector 107 FanetGpsrSecure.grayhole[33].wlan[0].radio transmissionState:vector ETV
attr interpolationmode sample-hold
attr source transmissionStateChanged
attr title "Radio transmission state, vector"
107	1758382 5390 0 432814 0 89.55377051737 183 1 2 274 456
vector 108 FanetGpsrSecure.grayhole[34].wlan[0].radio receptionState:vector ETV
attr interpolationmode sample-hold
attr source receptionStateChanged
attr title "Radio reception state, vector"
108	1763772 74262 0 438777 0 90.851886346057 2515 1 3 5029 12571
vector 109 FanetGpsrSecure.grayhole[34].wlan[0].radio transmissionState:vector ETV
attr interpolationmode sample-hold
attr source transmissionStateChanged
attr title "Radio transmission state, vector"
109	1838034 5156 0 435540 0 90.088276389892 175 1 2 262 436
vector 110 FanetGpsrSecure.grayhole[35].wlan[0].radio receptionState:vector ETV
attr interpolationmode sample-hold
attr source receptionStateChanged
attr title "Radio reception state, vector"
110	1843190 16605 0 437901 0 90.629593595001 561 1 3 1121 2801
vector 111 FanetGpsrSecure.grayhole[35].wlan[0].radio transmissionState:vector ETV
attr interpolationmode sample-hold
attr source transmissionStateChanged
attr title "Radio transmission state, vector"
111	1859795 5253 0 435229 0 90.046052470015 179 1 2 268 446
vector 112 FanetGpsrSecure.grayhole[36].wlan[0].radio receptionState:vector ETV
attr interpolationmode sample-hold
attr source receptionStateChanged
attr title "Radio reception state, vector"
112	1865048 20423 0 438128 0 90.68925744464 693 1 3 1385 3461
vector 113 FanetGpsrSecure.grayhole[36].wlan[0].radio transmissionState:vector ETV
attr interpolationmode sample-hold
attr source transmissionStateChanged
attr title "Radio transmission state, vector"
113	1885471 5278 0 437631 0 90.585566942949 179 1 2 268 446
vector 114 FanetGpsrSecure.grayhole[37].wlan[0].radio receptionState:vector ETV
attr interpolationmode sample-hold
attr source receptionStateChanged
attr title "Radio reception state, vector"
114	1890749 18560 0 438377 0 90.784164813573 629 1 3 1257 3141
vector 115 FanetGpsrSecure.grayhole[37].wlan[0].radio transmissionState:vector ETV
attr interpolationmode sample-hold
attr source transmissionStateChanged
attr title "Radio transmission state, vector"
115	1909309 5319 0 437896 0 90.629592798325 181 1 2 271 451
vector 116 FanetGpsrSecure.grayhole[38].wlan[0].radio receptionState:vector ETV
attr interpolationmode sample-hold
attr source receptionStateChanged
attr title "Radio reception state, vector"
116	1914628 16882 0 437909 0 90.629593643585 573 1 3 1145 2861
vector 117 FanetGpsrSecure.grayhole[38].wlan[0].radio transmissionState:vector ETV
attr interpolationmode sample-hold
attr source transmissionStateChanged
attr title "Radio transmission state, vector"
117	1931510 5327 0 438368 0 90.784163968313 181 1 2 271 451
vector 118 FanetGpsrSecure.grayhole[39].wlan[0].radio receptionState:vector ETV
attr interpolationmode sample-hold
attr source receptionStateChanged
attr title "Radio reception state, vector"
118	1936837 7917 0 437636 0 90.585567705223 271 1 3 541 1351
vector 119 FanetGpsrSecure.grayhole[39].wlan[0].radio transmissionState:vector ETV
attr interpolationmode sample-hold
attr source transmissionStateChanged
attr title "Radio transmission state, vector"
119	1944754 5209 0 434008 0 89.82542146174 177 1 2 265 441
vector 120 FanetGpsrSecure.grayhole[37].wlan[0].mac rcvdPkFromHl:vector(packetBytes) ETV
attr interpolationmode none
attr source packetReceivedFromUpper
attr title "packets received from higher layer, vector(packetBytes)"
120	1949963 2740 206 437855 0.533222386381 90.629570131658 90 40 40 3600 144000
vector 121 FanetGpsrSecure.grayhole[37].wlan[0].mac.queue packetPushed:vector(packetBytes) ETV
attr interpolationmode none
attr title "packet pushed, vector(packetBytes)"
121	1952703 2740 206 437855 0.533222386381 90.629570131658 90 40 40 3600 144000
vector 122 FanetGpsrSecure.grayhole[37].wlan[0].mac.queue queueLength:vector ETV
attr interpolationmode sample-hold
attr source "count(packetPushed) - count(packetPopped) - count(packetRemoved) - count(packetDropped)"
attr title "queue length, vector"
122	1955443 5300 206 437855 0.533222386381 90.629570131658 180 0 1 90 90
vector 123 FanetGpsrSecure.grayhole[37].wlan[0].mac.queue packetPopped:vector(packetBytes) ETV
attr interpolationmode none
attr title "packet popped, vector(packetBytes)"
123	1960743 2740 206 437855 0.533222386381 90.629570131658 90 40 40 3600 144000
vector 124 FanetGpsrSecure.grayhole[37].wlan[0].mac.queue queueingTime:vector ETV
attr interpolationmode none
attr source queueingTime(packetPopped)
attr title "queueing times, vector"
attr unit s
124	1963483 2650 206 437855 0.533222386381 90.629570131658 90 0 0 0 0
vector 125 FanetGpsrSecure.grayhole[37].wlan[0].mac sentDownPk:vector(packetBytes) ETV
attr interpolationmode none
attr source packetSentToLower
attr title "packets sent to lower layer, vector(packetBytes)"
125	1966133 2740 206 437855 0.533222386381 90.629570131658 90 56 56 5040 282240
vector 126 FanetGpsrSecure.grayhole[21].wlan[0].mac rcvdPkFromLl:vector(packetBytes) ETV
attr interpolationmode none
attr source packetReceivedFromLower
attr title "packets received from lower layer, vector(packetBytes)"
126	1968873 12172 249 437914 0.533245732633 90.629593784431 395 56 1084 88940 77413520
vector 127 FanetGpsrSecure.grayhole[21].wlan[0].mac passedUpPk:vector(packetBytes) ETV
attr interpolationmode none
attr source packetSentToUpper
attr title "packets passed to higher layer, vector(packetBytes)"
127	1981045 10084 249 437914 0.533245732633 90.629593784431 330 40 40 13200 528000
vector 128 FanetGpsrSecure.grayhole[14].wlan[0].mac rcvdPkFromLl:vector(packetBytes) ETV
attr interpolationmode none
attr source packetReceivedFromLower
attr title "packets received from lower layer, vector(packetBytes)"
128	1991129 11333 253 437898 0.533245838596 90.629593238421 371 56 56 20776 1163456
vector 129 FanetGpsrSecure.grayhole[14].wlan[0].mac passedUpPk:vector(packetBytes) ETV
attr interpolationmode none
attr source packetSentToUpper
attr title "packets passed to higher layer, vector(packetBytes)"
129	2002462 11333 253 437898 0.533245838596 90.629593238421 371 40 40 14840 593600
vector 130 FanetGpsrSecure.grayhole[35].wlan[0].mac rcvdPkFromLl:vector(packetBytes) ETV
attr interpolationmode none
attr source packetReceivedFromLower
attr title "packets received from lower layer, vector(packetBytes)"
130	2013795 8572 257 437902 0.533245841258 90.629593595001 280 56 56 15680 878080
vector 131 FanetGpsrSecure.grayhole[35].wlan[0].mac passedUpPk:vector(packetBytes) ETV
attr interpolationmode none
attr source packetSentToUpper
attr title "packets passed to higher layer, vector(packetBytes)"
131	2022367 8572 257 437902 0.533245841258 90.629593595001 280 40 40 11200 448000
vector 132 FanetGpsrSecure.grayhole[0].wlan[0].mac rcvdPkFromLl:vector(packetBytes) ETV
attr interpolationmode none
attr source packetReceivedFromLower
attr title "packets received from lower layer, vector(packetBytes)"
132	2030939 27374 261 438507 0.533245908293 90.794532461322 891 56 1084 142416 108266976
vector 133 FanetGpsrSecure.grayhole[0].wlan[0].mac passedUpPk:vector(packetBytes) ETV
attr interpolationmode none
attr source packetSentToUpper
attr title "packets passed to higher layer, vector(packetBytes)"
133	2058313 24438 261 438507 0.533245908293 90.794532461322 801 40 40 32040 1281600
vector 134 FanetGpsrSecure.grayhole[23].wlan[0].mac rcvdPkFromHl:vector(packetBytes) ETV
attr interpolationmode none
attr source packetReceivedFromUpper
attr title "packets received from higher layer, vector(packetBytes)"
134	2082751 2805 301 436478 0.53755938448 90.184656611411 92 40 40 3680 147200
vector 135 FanetGpsrSecure.grayhole[23].wlan[0].mac.queue packetPushed:vector(packetBytes) ETV
attr interpolationmode none
attr title "packet pushed, vector(packetBytes)"
135	2085556 2805 301 436478 0.53755938448 90.184656611411 92 40 40 3680 147200
vector 136 FanetGpsrSecure.grayhole[23].wlan[0].mac.queue queueLength:vector ETV
attr interpolationmode sample-hold
attr source "count(packetPushed) - count(packetPopped) - count(packetRemoved) - count(packetDropped)"
attr title "queue length, vector"
136	2088361 5426 301 436478 0.53755938448 90.184656611411 184 0 1 92 92
vector 137 FanetGpsrSecure.grayhole[23].wlan[0].mac.queue packetPopped:vector(packetBytes) ETV
attr interpolationmode none
attr title "packet popped, vector(packetBytes)"
137	2093787 2805 301 436478 0.53755938448 90.184656611411 92 40 40 3680 147200
vector 138 FanetGpsrSecure.grayhole[23].wlan[0].mac.queue queueingTime:vector ETV
attr interpolationmode none
attr source queueingTime(packetPopped)
attr title "queueing times, vector"
attr unit s
138	2096592 2713 301 436478 0.53755938448 90.184656611411 92 0 0 0 0
vector 139 FanetGpsrSecure.grayhole[23].wlan[0].mac sentDownPk:vector(packetBytes) ETV
attr interpolationmode none
attr source packetSentToLower
attr title "packets sent to lower layer, vector(packetBytes)"
139	2099305 2805 301 436478 0.53755938448 90.184656611411 92 56 56 5152 288512
vector 140 FanetGpsrSecure.grayhole[1].wlan[0].mac rcvdPkFromLl:vector(packetBytes) ETV
attr interpolationmode none
attr source packetReceivedFromLower
attr title "packets received from lower layer, vector(packetBytes)"
140	2102110 37257 344 438636 0.537582315971 90.849718400604 1212 56 1084 183008 135055872
vector 141 FanetGpsrSecure.grayhole[1].wlan[0].mac passedUpPk:vector(packetBytes) ETV
attr interpolationmode none
attr source packetSentToUpper
attr title "packets passed to higher layer, vector(packetBytes)"
141	2139367 33649 344 438636 0.537582315971 90.849718400604 1100 40 40 44000 1760000
vector 142 FanetGpsrSecure.grayhole[3].wlan[0].mac rcvdPkFromLl:vector(packetBytes) ETV
attr interpolationmode none
attr source packetReceivedFromLower
attr title "packets received from lower layer, vector(packetBytes)"
142	2173016 41244 348 438483 0.537582597831 90.794532101091 1340 56 1084 226156 176474480
vector 143 FanetGpsrSecure.grayhole[3].wlan[0].mac passedUpPk:vector(packetBytes) ETV
attr interpolationmode none
attr source packetSentToUpper
attr title "packets passed to higher layer, vector(packetBytes)"
143	2214260 36463 348 438483 0.537582597831 90.794532101091 1193 40 40 47720 1908800
vector 144 FanetGpsrSecure.grayhole[28].wlan[0].mac rcvdPkFromLl:vector(packetBytes) ETV
attr interpolationmode none
attr source packetReceivedFromLower
attr title "packets received from lower layer, vector(packetBytes)"
144	2250723 22914 352 438656 0.537582724134 90.849718621157 751 56 1084 49252 10558576
vector 145 FanetGpsrSecure.grayhole[28].wlan[0].mac passedUpPk:vector(packetBytes) ETV
attr interpolationmode none
attr source packetSentToUpper
attr title "packets passed to higher layer, vector(packetBytes)"
145	2273637 22701 352 438656 0.537582724134 90.849718621157 744 40 40 29760 1190400
vector 146 FanetGpsrSecure.grayhole[25].wlan[0].mac rcvdPkFromLl:vector(packetBytes) ETV
attr interpolationmode none
attr source packetReceivedFromLower
attr title "packets received from lower layer, vector(packetBytes)"
146	2296338 27630 356 438652 0.53758277913 90.84971861431 900 56 1084 139836 104779440
vector 147 FanetGpsrSecure.grayhole[25].wlan[0].mac passedUpPk:vector(packetBytes) ETV
attr interpolationmode none
attr source packetSentToUpper
attr title "packets passed to higher layer, vector(packetBytes)"
147	2323968 24821 356 438652 0.53758277913 90.84971861431 813 40 40 32520 1300800
vector 148 FanetGpsrSecure.grayhole[11].wlan[0].mac rcvdPkFromLl:vector(packetBytes) ETV
attr interpolationmode none
attr source packetReceivedFromLower
attr title "packets received from lower layer, vector(packetBytes)"
148	2348789 31010 360 438766 0.537582849312 90.851886156681 1009 56 1084 162388 123871984
vector 149 FanetGpsrSecure.grayhole[11].wlan[0].mac passedUpPk:vector(packetBytes) ETV
attr interpolationmode none
attr source packetSentToUpper
attr title "packets passed to higher layer, vector(packetBytes)"
149	2379799 29349 360 438766 0.537582849312 90.851886156681 958 40 1068 91776 60762048
vector 150 FanetGpsrSecure.grayhole[9].wlan[0].mac rcvdPkFromLl:vector(packetBytes) ETV
attr interpolationmode none
attr source packetReceivedFromLower
attr title "packets received from lower layer, vector(packetBytes)"
150	2409148 38469 364 438660 0.537582936163 90.849718680486 1256 56 1084 157716 103552016
vector 151 FanetGpsrSecure.grayhole[9].wlan[0].mac passedUpPk:vector(packetBytes) ETV
attr interpolationmode none
attr source packetSentToUpper
attr title "packets passed to higher layer, vector(packetBytes)"
151	2447617 35727 364 438660 0.537582936163 90.849718680486 1171 40 40 46840 1873600
vector 152 FanetGpsrSecure.grayhole[15].wlan[0].mac rcvdPkFromLl:vector(packetBytes) ETV
attr interpolationmode none
attr source packetReceivedFromLower
attr title "packets received from lower layer, vector(packetBytes)"
152	2483344 14519 368 438680 0.537582972811 90.849718885914 474 56 56 26544 1486464
vector 153 FanetGpsrSecure.grayhole[15].wlan[0].mac passedUpPk:vector(packetBytes) ETV
attr interpolationmode none
attr source packetSentToUpper
attr title "packets passed to higher layer, vector(packetBytes)"
153	2497863 14519 368 438680 0.537582972811 90.849718885914 474 40 40 18960 758400
vector 154 FanetGpsrSecure.grayhole[2].wlan[0].mac rcvdPkFromLl:vector(packetBytes) ETV
attr interpolationmode none
attr source packetReceivedFromLower
attr title "packets received from lower layer, vector(packetBytes)"
154	2512382 13594 372 437412 0.537582998293 90.490526267625 443 56 56 24808 1389248
vector 155 FanetGpsrSecure.grayhole[2].wlan[0].mac passedUpPk:vector(packetBytes) ETV
attr interpolationmode none
attr source packetSentToUpper
attr title "packets passed to higher layer, vector(packetBytes)"
155	2525976 13594 372 437412 0.537582998293 90.490526267625 443 40 40 17720 708800
vector 156 FanetGpsrSecure.grayhole[38].wlan[0].mac rcvdPkFromHl:vector(packetBytes) ETV
attr interpolationmode none
attr source packetReceivedFromUpper
attr title "packets received from higher layer, vector(packetBytes)"
156	2539570 2749 410 438327 0.56916699023 90.784141301646 90 40 40 3600 144000
vector 157 FanetGpsrSecure.grayhole[38].wlan[0].mac.queue packetPushed:vector(packetBytes) ETV
attr interpolationmode none
attr title "packet pushed, vector(packetBytes)"
157	2542319 2749 410 438327 0.56916699023 90.784141301646 90 40 40 3600 144000
vector 158 FanetGpsrSecure.grayhole[38].wlan[0].mac.queue queueLength:vector ETV
attr interpolationmode sample-hold
attr source "count(packetPushed) - count(packetPopped) - count(packetRemoved) - count(packetDropped)"
attr title "queue length, vector"
158	2545068 5318 410 438327 0.56916699023 90.784141301646 180 0 1 90 90
vector 159 FanetGpsrSecure.grayhole[38].wlan[0].mac.queue packetPopped:vector(packetBytes) ETV
attr interpolationmode none
attr title "packet popped, vector(packetBytes)"
159	2550386 2749 410 438327 0.56916699023 90.784141301646 90 40 40 3600 144000
vector 160 FanetGpsrSecure.grayhole[38].wlan[0].mac.queue queueingTime:vector ETV
attr interpolationmode none
attr source queueingTime(packetPopped)
attr title "queueing times, vector"
attr unit s
160	2553135 2659 410 438327 0.56916699023 90.784141301646 90 0 0 0 0
vector 161 FanetGpsrSecure.grayhole[38].wlan[0].mac sentDownPk:vector(packetBytes) ETV
attr interpolationmode none
attr source packetSentToLower
attr title "packets sent to lower layer, vector(packetBytes)"
161	2555794 2749 410 438327 0.56916699023 90.784141301646 90 56 56 5040 282240
vector 162 FanetGpsrSecure.grayhole[27].wlan[0].mac rcvdPkFromLl:vector(packetBytes) ETV
attr interpolationmode none
attr source packetReceivedFromLower
attr title "packets received from lower layer, vector(packetBytes)"
162	2558543 12365 453 438370 0.569189981464 90.784164254229 405 56 56 22680 1270080
vector 163 FanetGpsrSecure.grayhole[27].wlan[0].mac passedUpPk:vector(packetBytes) ETV
attr interpolationmode none
attr source packetSentToUpper
attr title "packets passed to higher layer, vector(packetBytes)"
163	2570908 12365 453 438370 0.569189981464 90.784164254229 405 40 40 16200 648000
vector 164 FanetGpsrSecure.grayhole[13].wlan[0].mac rcvdPkFromLl:vector(packetBytes) ETV
attr interpolationmode none
attr source packetReceivedFromLower
attr title "packets received from lower layer, vector(packetBytes)"
164	2583273 14395 461 438374 0.56919039037 90.784164350909 472 56 56 26432 1480192
vector 165 FanetGpsrSecure.grayhole[13].wlan[0].mac passedUpPk:vector(packetBytes) ETV
attr interpolationmode none
attr source packetSentToUpper
attr title "packets passed to higher layer, vector(packetBytes)"
165	2597668 14395 461 438374 0.56919039037 90.784164350909 472 40 40 18880 755200
vector 166 FanetGpsrSecure.grayhole[3].wlan[0].mac rcvdPkFromHl:vector(packetBytes) ETV
attr interpolationmode none
attr source packetReceivedFromUpper
attr title "packets received from higher layer, vector(packetBytes)"
166	2612063 2776 503 438589 0.59725992661 90.849695225012 91 40 40 3640 145600
vector 167 FanetGpsrSecure.grayhole[3].wlan[0].mac.queue packetPushed:vector(packetBytes) ETV
attr interpolationmode none
attr title "packet pushed, vector(packetBytes)"
167	2614839 2776 503 438589 0.59725992661 90.849695225012 91 40 40 3640 145600
vector 168 FanetGpsrSecure.grayhole[3].wlan[0].mac.queue queueLength:vector ETV
attr interpolationmode sample-hold
attr source "count(packetPushed) - count(packetPopped) - count(packetRemoved) - count(packetDropped)"
attr title "queue length, vector"
168	2617615 5370 503 438589 0.59725992661 90.849695225012 182 0 1 91 91
vector 169 FanetGpsrSecure.grayhole[3].wlan[0].mac.queue packetPopped:vector(packetBytes) ETV
attr interpolationmode none
attr title "packet popped, vector(packetBytes)"
169	2622985 2776 503 438589 0.59725992661 90.849695225012 91 40 40 3640 145600
vector 170 FanetGpsrSecure.grayhole[3].wlan[0].mac.queue queueingTime:vector ETV
attr interpolationmode none
attr source queueingTime(packetPopped)
attr title "queueing times, vector"
attr unit s
170	2625761 2685 503 438589 0.59725992661 90.849695225012 91 0 0 0 0
vector 171 FanetGpsrSecure.grayhole[3].wlan[0].mac sentDownPk:vector(packetBytes) ETV
attr interpolationmode none
attr source packetSentToLower
attr title "packets sent to lower layer, vector(packetBytes)"
171	2628446 2776 503 438589 0.59725992661 90.849695225012 91 56 56 5096 285376
vector 172 FanetGpsrSecure.grayhole[23].wlan[0].mac rcvdPkFromLl:vector(packetBytes) ETV
attr interpolationmode none
attr source packetReceivedFromLower
attr title "packets received from lower layer, vector(packetBytes)"
172	2631222 20049 558 437408 0.597283140293 90.490526242222 656 56 1084 63464 32527136
vector 173 FanetGpsrSecure.grayhole[23].wlan[0].mac passedUpPk:vector(packetBytes) ETV
attr interpolationmode none
attr source packetSentToUpper
attr title "packets passed to higher layer, vector(packetBytes)"
173	2651271 19223 558 437408 0.597283140293 90.490526242222 630 40 40 25200 1008000
vector 174 FanetGpsrSecure.grayhole[7].wlan[0].mac rcvdPkFromLl:vector(packetBytes) ETV
attr interpolationmode none
attr source packetReceivedFromLower
attr title "packets received from lower layer, vector(packetBytes)"
174	2670494 41310 562 438770 0.597283144438 90.851886288637 1342 56 1084 239632 191715712
vector 175 FanetGpsrSecure.grayhole[7].wlan[0].mac passedUpPk:vector(packetBytes) ETV
attr interpolationmode none
attr source packetSentToUpper
attr title "packets passed to higher layer, vector(packetBytes)"
175	2711804 37978 562 438770 0.597283144438 90.851886288637 1240 40 1068 109224 68047392
vector 176 FanetGpsrSecure.grayhole[34].wlan[0].mac rcvdPkFromLl:vector(packetBytes) ETV
attr interpolationmode none
attr source packetReceivedFromLower
attr title "packets received from lower layer, vector(packetBytes)"
176	2749782 38768 574 438778 0.597283250014 90.851886346057 1257 56 1084 257488 217231392
vector 177 FanetGpsrSecure.grayhole[34].wlan[0].mac passedUpPk:vector(packetBytes) ETV
attr interpolationmode none
attr source packetSentToUpper
attr title "packets passed to higher layer, vector(packetBytes)"
177	2788550 32831 574 438778 0.597283250014 90.851886346057 1075 40 40 43000 1720000
vector 178 FanetGpsrSecure.grayhole[6].wlan[0].mac rcvdPkFromLl:vector(packetBytes) ETV
attr interpolationmode none
attr source packetReceivedFromLower
attr title "packets received from lower layer, vector(packetBytes)"
178	2821381 36325 578 438782 0.597283311471 90.851886410089 1180 56 1084 217196 175972720
vector 179 FanetGpsrSecure.grayhole[6].wlan[0].mac passedUpPk:vector(packetBytes) ETV
attr interpolationmode none
attr source packetSentToUpper
attr title "packets passed to higher layer, vector(packetBytes)"
179	2857706 31544 578 438782 0.597283311471 90.851886410089 1033 40 40 41320 1652800
vector 180 FanetGpsrSecure.grayhole[29].wlan[0].mac rcvdPkFromLl:vector(packetBytes) ETV
attr interpolationmode none
attr source packetReceivedFromLower
attr title "packets received from lower layer, vector(packetBytes)"
180	2889250 39664 582 438648 0.597283390331 90.849718584573 1284 56 1084 264140 223175664
vector 181 FanetGpsrSecure.grayhole[29].wlan[0].mac passedUpPk:vector(packetBytes) ETV
attr interpolationmode none
attr source packetSentToUpper
attr title "packets passed to higher layer, vector(packetBytes)"
181	2928914 34322 582 438648 0.597283390331 90.849718584573 1120 40 1068 68444 27989552
vector 182 FanetGpsrSecure.grayhole[16].wlan[0].mac rcvdPkFromLl:vector(packetBytes) ETV
attr interpolationmode none
attr source packetReceivedFromLower
attr title "packets received from lower layer, vector(packetBytes)"
182	2963236 36281 586 438503 0.597283430513 90.794532423415 1176 56 1084 249868 213461616
vector 183 FanetGpsrSecure.grayhole[16].wlan[0].mac passedUpPk:vector(packetBytes) ETV
attr interpolationmode none
attr source packetSentToUpper
attr title "packets passed to higher layer, vector(packetBytes)"
183	2999517 30472 586 438503 0.597283430513 90.794532423415 997 40 40 39880 1595200
vector 184 FanetGpsrSecure.grayhole[13].wlan[0].mac rcvdPkFromHl:vector(packetBytes) ETV
attr interpolationmode none
attr source packetReceivedFromUpper
attr title "packets received from higher layer, vector(packetBytes)"
184	3029989 2682 619 434521 0.599569084821 89.950631601036 88 40 40 3520 140800
vector 185 FanetGpsrSecure.grayhole[13].wlan[0].mac.queue packetPushed:vector(packetBytes) ETV
attr interpolationmode none
attr title "packet pushed, vector(packetBytes)"
185	3032671 2682 619 434521 0.599569084821 89.950631601036 88 40 40 3520 140800
vector 186 FanetGpsrSecure.grayhole[13].wlan[0].mac.queue queueLength:vector ETV
attr interpolationmode sample-hold
attr source "count(packetPushed) - count(packetPopped) - count(packetRemoved) - count(packetDropped)"
attr title "queue length, vector"
186	3035353 5188 619 434521 0.599569084821 89.950631601036 176 0 1 88 88
vector 187 FanetGpsrSecure.grayhole[13].wlan[0].mac.queue packetPopped:vector(packetBytes) ETV
attr interpolationmode none
attr title "packet popped, vector(packetBytes)"
187	3040541 2682 619 434521 0.599569084821 89.950631601036 88 40 40 3520 140800
vector 188 FanetGpsrSecure.grayhole[13].wlan[0].mac.queue queueingTime:vector ETV
attr interpolationmode none
attr source queueingTime(packetPopped)
attr title "queueing times, vector"
attr unit s
188	3043223 2594 619 434521 0.599569084821 89.950631601036 88 0 0 0 0
vector 189 FanetGpsrSecure.grayhole[13].wlan[0].mac sentDownPk:vector(packetBytes) ETV
attr interpolationmode none
attr source packetSentToLower
attr title "packets sent to lower layer, vector(packetBytes)"
189	3045817 2682 619 434521 0.599569084821 89.950631601036 88 56 56 4928 275968
vector 190 FanetGpsrSecure.grayhole[22].wlan[0].mac rcvdPkFromLl:vector(packetBytes) ETV
attr interpolationmode none
attr source packetReceivedFromLower
attr title "packets received from lower layer, vector(packetBytes)"
190	3048499 13734 662 437645 0.599592202389 90.58556779107 450 56 56 25200 1411200
vector 191 FanetGpsrSecure.grayhole[22].wlan[0].mac passedUpPk:vector(packetBytes) ETV
attr interpolationmode none
attr source packetSentToUpper
attr title "packets passed to higher layer, vector(packetBytes)"
191	3062233 13734 662 437645 0.599592202389 90.58556779107 450 40 40 18000 720000
vector 192 FanetGpsrSecure.grayhole[4].wlan[0].mac rcvdPkFromLl:vector(packetBytes) ETV
attr interpolationmode none
attr source packetReceivedFromLower
attr title "packets received from lower layer, vector(packetBytes)"
192	3075967 14102 670 438117 0.599592375871 90.689256786157 462 56 56 25872 1448832
vector 193 FanetGpsrSecure.grayhole[4].wlan[0].mac passedUpPk:vector(packetBytes) ETV
attr interpolationmode none
attr source packetSentToUpper
attr title "packets passed to higher layer, vector(packetBytes)"
193	3090069 14102 670 438117 0.599592375871 90.689256786157 462 40 40 18480 739200
vector 194 FanetGpsrSecure.grayhole[38].wlan[0].mac rcvdPkFromLl:vector(packetBytes) ETV
attr interpolationmode none
attr source packetReceivedFromLower
attr title "packets received from lower layer, vector(packetBytes)"
194	3104171 8717 674 437910 0.599592485426 90.629593643585 286 56 56 16016 896896
vector 195 FanetGpsrSecure.grayhole[38].wlan[0].mac passedUpPk:vector(packetBytes) ETV
attr interpolationmode none
attr source packetSentToUpper
attr title "packets passed to higher layer, vector(packetBytes)"
195	3112888 8717 674 437910 0.599592485426 90.629593643585 286 40 40 11440 457600
vector 196 FanetGpsrSecure.grayhole[19].wlan[0].mac rcvdPkFromLl:vector(packetBytes) ETV
attr interpolationmode none
attr source packetReceivedFromLower
attr title "packets received from lower layer, vector(packetBytes)"
196	3121605 6928 678 438121 0.599592621824 90.689257107069 228 56 56 12768 715008
vector 197 FanetGpsrSecure.grayhole[19].wlan[0].mac passedUpPk:vector(packetBytes) ETV
attr interpolationmode none
attr source packetSentToUpper
attr title "packets passed to higher layer, vector(packetBytes)"
197	3128533 6928 678 438121 0.599592621824 90.689257107069 228 40 40 9120 364800
vector 198 FanetGpsrSecure.grayhole[12].wlan[0].mac rcvdPkFromHl:vector(packetBytes) ETV
attr interpolationmode none
attr source packetReceivedFromUpper
attr title "packets received from higher layer, vector(packetBytes)"
198	3135461 2866 757 434731 0.60022688657 89.993899381487 94 40 40 3760 150400
vector 199 FanetGpsrSecure.grayhole[12].wlan[0].mac.queue packetPushed:vector(packetBytes) ETV
attr interpolationmode none
attr title "packet pushed, vector(packetBytes)"
199	3138327 2866 757 434731 0.60022688657 89.993899381487 94 40 40 3760 150400
vector 200 FanetGpsrSecure.grayhole[12].wlan[0].mac.queue queueLength:vector ETV
attr interpolationmode sample-hold
attr source "count(packetPushed) - count(packetPopped) - count(packetRemoved) - count(packetDropped)"
attr title "queue length, vector"
200	3141193 5544 757 434731 0.60022688657 89.993899381487 188 0 1 94 94
vector 201 FanetGpsrSecure.grayhole[12].wlan[0].mac.queue packetPopped:vector(packetBytes) ETV
attr interpolationmode none
attr title "packet popped, vector(packetBytes)"
201	3146737 2866 757 434731 0.60022688657 89.993899381487 94 40 40 3760 150400
vector 202 FanetGpsrSecure.grayhole[12].wlan[0].mac.queue queueingTime:vector ETV
attr interpolationmode none
attr source queueingTime(packetPopped)
attr title "queueing times, vector"
attr unit s
202	3149603 2772 757 434731 0.60022688657 89.993899381487 94 0 0 0 0
vector 203 FanetGpsrSecure.grayhole[12].wlan[0].mac sentDownPk:vector(packetBytes) ETV
attr interpolationmode none
attr source packetSentToLower
attr title "packets sent to lower layer, vector(packetBytes)"
203	3152375 2866 757 434731 0.60022688657 89.993899381487 94 56 56 5264 294784
vector 204 FanetGpsrSecure.grayhole[32].wlan[0].mac rcvdPkFromLl:vector(packetBytes) ETV
attr interpolationmode none
attr source packetReceivedFromLower
attr title "packets received from lower layer, vector(packetBytes)"
204	3155241 23239 800 438033 0.600249716395 90.67316882253 760 56 56 42560 2383360
vector 205 FanetGpsrSecure.grayhole[32].wlan[0].mac passedUpPk:vector(packetBytes) ETV
attr interpolationmode none
attr source packetSentToUpper
attr title "packets passed to higher layer, vector(packetBytes)"
205	3178480 23239 800 438033 0.600249716395 90.67316882253 760 40 40 30400 1216000
vector 206 FanetGpsrSecure.grayhole[17].wlan[0].mac rcvdPkFromLl:vector(packetBytes) ETV
attr interpolationmode none
attr source packetReceivedFromLower
attr title "packets received from lower layer, vector(packetBytes)"
206	3201719 15179 804 436786 0.600249992662 90.282830019679 498 56 56 27888 1561728
vector 207 FanetGpsrSecure.grayhole[17].wlan[0].mac passedUpPk:vector(packetBytes) ETV
attr interpolationmode none
attr source packetSentToUpper
attr title "packets passed to higher layer, vector(packetBytes)"
207	3216898 15179 804 436786 0.600249992662 90.282830019679 498 40 40 19920 796800
vector 208 FanetGpsrSecure.grayhole[10].wlan[0].mac rcvdPkFromLl:vector(packetBytes) ETV
attr interpolationmode none
attr source packetReceivedFromLower
attr title "packets received from lower layer, vector(packetBytes)"
208	3232077 23281 808 438515 0.600250121721 90.794532520179 757 56 1084 82484 48078832
vector 209 FanetGpsrSecure.grayhole[10].wlan[0].mac passedUpPk:vector(packetBytes) ETV
attr interpolationmode none
attr source packetSentToUpper
attr title "packets passed to higher layer, vector(packetBytes)"
209	3255358 21963 808 438515 0.600250121721 90.794532520179 717 40 40 28680 1147200
vector 210 FanetGpsrSecure.grayhole[8].wlan[0].mac rcvdPkFromLl:vector(packetBytes) ETV
attr interpolationmode none
attr source packetReceivedFromLower
attr title "packets received from lower layer, vector(packetBytes)"
210	3277321 14414 812 437307 0.600250480541 90.487483655392 473 56 56 26488 1483328
vector 211 FanetGpsrSecure.grayhole[8].wlan[0].mac passedUpPk:vector(packetBytes) ETV
attr interpolationmode none
attr source packetSentToUpper
attr title "packets passed to higher layer, vector(packetBytes)"
211	3291735 14414 812 437307 0.600250480541 90.487483655392 473 40 40 18920 756800
vector 212 FanetGpsrSecure.grayhole[28].wlan[0].mac rcvdPkFromHl:vector(packetBytes) ETV
attr interpolationmode none
attr source packetReceivedFromUpper
attr title "packets received from higher layer, vector(packetBytes)"
212	3306149 2770 861 436365 0.6238199824 90.183480859734 91 40 40 3640 145600
vector 213 FanetGpsrSecure.grayhole[28].wlan[0].mac.queue packetPushed:vector(packetBytes) ETV
attr interpolationmode none
attr title "packet pushed, vector(packetBytes)"
213	3308919 2770 861 436365 0.6238199824 90.183480859734 91 40 40 3640 145600
vector 214 FanetGpsrSecure.grayhole[28].wlan[0].mac.queue queueLength:vector ETV
attr interpolationmode sample-hold
attr source "count(packetPushed) - count(packetPopped) - count(packetRemoved) - count(packetDropped)"
attr title "queue length, vector"
214	3311689 5358 861 436365 0.6238199824 90.183480859734 182 0 1 91 91
vector 215 FanetGpsrSecure.grayhole[28].wlan[0].mac.queue packetPopped:vector(packetBytes) ETV
attr interpolationmode none
attr title "packet popped, vector(packetBytes)"
215	3317047 2770 861 436365 0.6238199824 90.183480859734 91 40 40 3640 145600
vector 216 FanetGpsrSecure.grayhole[28].wlan[0].mac.queue queueingTime:vector ETV
attr interpolationmode none
attr source queueingTime(packetPopped)
attr title "queueing times, vector"
attr unit s
216	3319817 2679 861 436365 0.6238199824 90.183480859734 91 0 0 0 0
vector 217 FanetGpsrSecure.grayhole[28].wlan[0].mac sentDownPk:vector(packetBytes) ETV
attr interpolationmode none
attr source packetSentToLower
attr title "packets sent to lower layer, vector(packetBytes)"
217	3322496 2770 861 436365 0.6238199824 90.183480859734 91 56 56 5096 285376
vector 218 FanetGpsrSecure.grayhole[12].wlan[0].mac rcvdPkFromLl:vector(packetBytes) ETV
attr interpolationmode none
attr source packetReceivedFromLower
attr title "packets received from lower layer, vector(packetBytes)"
218	3325266 16977 932 437031 0.62384361676 90.379807794761 556 56 56 31136 1743616
vector 219 FanetGpsrSecure.grayhole[12].wlan[0].mac passedUpPk:vector(packetBytes) ETV
attr interpolationmode none
attr source packetSentToUpper
attr title "packets passed to higher layer, vector(packetBytes)"
219	3342243 16977 932 437031 0.62384361676 90.379807794761 556 40 40 22240 889600
vector 220 FanetGpsrSecure.grayhole[35].wlan[0].mac rcvdPkFromHl:vector(packetBytes) ETV
attr interpolationmode none
attr source packetReceivedFromUpper
attr title "packets received from higher layer, vector(packetBytes)"
220	3359220 2711 972 435188 0.639972583158 90.046029803348 89 40 40 3560 142400
vector 221 FanetGpsrSecure.grayhole[35].wlan[0].mac.queue packetPushed:vector(packetBytes) ETV
attr interpolationmode none
attr title "packet pushed, vector(packetBytes)"
221	3361931 2711 972 435188 0.639972583158 90.046029803348 89 40 40 3560 142400
vector 222 FanetGpsrSecure.grayhole[35].wlan[0].mac.queue queueLength:vector ETV
attr interpolationmode sample-hold
attr source "count(packetPushed) - count(packetPopped) - count(packetRemoved) - count(packetDropped)"
attr title "queue length, vector"
222	3364642 5244 972 435188 0.639972583158 90.046029803348 178 0 1 89 89
vector 223 FanetGpsrSecure.grayhole[35].wlan[0].mac.queue packetPopped:vector(packetBytes) ETV
attr interpolationmode none
attr title "packet popped, vector(packetBytes)"
223	3369886 2711 972 435188 0.639972583158 90.046029803348 89 40 40 3560 142400
vector 224 FanetGpsrSecure.grayhole[35].wlan[0].mac.queue queueingTime:vector ETV
attr interpolationmode none
attr source queueingTime(packetPopped)
attr title "queueing times, vector"
attr unit s
224	3372597 2622 972 435188 0.639972583158 90.046029803348 89 0 0 0 0
vector 225 FanetGpsrSecure.grayhole[35].wlan[0].mac sentDownPk:vector(packetBytes) ETV
attr interpolationmode none
attr source packetSentToLower
attr title "packets sent to lower layer, vector(packetBytes)"
225	3375219 2711 972 435188 0.639972583158 90.046029803348 89 56 56 4984 279104
vector 226 FanetGpsrSecure.grayhole[18].wlan[0].mac rcvdPkFromLl:vector(packetBytes) ETV
attr interpolationmode none
attr source packetReceivedFromLower
attr title "packets received from lower layer, vector(packetBytes)"
226	3377930 4725 1015 437633 0.639995849769 90.585567610477 155 56 56 8680 486080
vector 227 FanetGpsrSecure.grayhole[18].wlan[0].mac passedUpPk:vector(packetBytes) ETV
attr interpolationmode none
attr source packetSentToUpper
attr title "packets passed to higher layer, vector(packetBytes)"
227	3382655 4725 1015 437633 0.639995849769 90.585567610477 155 40 40 6200 248000
vector 228 FanetGpsrSecure.grayhole[37].wlan[0].mac rcvdPkFromLl:vector(packetBytes) ETV
attr interpolationmode none
attr source packetReceivedFromLower
attr title "packets received from lower layer, vector(packetBytes)"
228	3387380 9591 1019 438378 0.639996034911 90.784164813573 314 56 1084 20668 4500464
vector 229 FanetGpsrSecure.grayhole[37].wlan[0].mac passedUpPk:vector(packetBytes) ETV
attr interpolationmode none
attr source packetSentToUpper
attr title "packets passed to higher layer, vector(packetBytes)"
229	3396971 9501 1019 438378 0.639996034911 90.784164813573 311 40 40 12440 497600
vector 230 FanetGpsrSecure.grayhole[1].wlan[0].mac rcvdPkFromHl:vector(packetBytes) ETV
attr interpolationmode none
attr source packetReceivedFromUpper
attr title "packets received from higher layer, vector(packetBytes)"
230	3406472 2842 1064 437345 0.641263902886 90.490502911151 93 40 40 3720 148800
vector 231 FanetGpsrSecure.grayhole[1].wlan[0].mac.queue packetPushed:vector(packetBytes) ETV
attr interpolationmode none
attr title "packet pushed, vector(packetBytes)"
231	3409314 2842 1064 437345 0.641263902886 90.490502911151 93 40 40 3720 148800
vector 232 FanetGpsrSecure.grayhole[1].wlan[0].mac.queue queueLength:vector ETV
attr interpolationmode sample-hold
attr source "count(packetPushed) - count(packetPopped) - count(packetRemoved) - count(packetDropped)"
attr title "queue length, vector"
232	3412156 5498 1064 437345 0.641263902886 90.490502911151 186 0 1 93 93
vector 233 FanetGpsrSecure.grayhole[1].wlan[0].mac.queue packetPopped:vector(packetBytes) ETV
attr interpolationmode none
attr title "packet popped, vector(packetBytes)"
233	3417654 2842 1064 437345 0.641263902886 90.490502911151 93 40 40 3720 148800
vector 234 FanetGpsrSecure.grayhole[1].wlan[0].mac.queue queueingTime:vector ETV
attr interpolationmode none
attr source queueingTime(packetPopped)
attr title "queueing times, vector"
attr unit s
234	3420496 2749 1064 437345 0.641263902886 90.490502911151 93 0 0 0 0
vector 235 FanetGpsrSecure.grayhole[1].wlan[0].mac sentDownPk:vector(packetBytes) ETV
attr interpolationmode none
attr source packetSentToLower
attr title "packets sent to lower layer, vector(packetBytes)"
235	3423245 2842 1064 437345 0.641263902886 90.490502911151 93 56 56 5208 291648
vector 236 FanetGpsrSecure.grayhole[20].wlan[0].mac rcvdPkFromHl:vector(packetBytes) ETV
attr interpolationmode none
attr source packetReceivedFromUpper
attr title "packets received from higher layer, vector(packetBytes)"
236	3426087 2932 1171 438711 0.64944830467 90.851862919049 96 40 40 3840 153600
vector 237 FanetGpsrSecure.grayhole[20].wlan[0].mac.queue packetPushed:vector(packetBytes) ETV
attr interpolationmode none
attr title "packet pushed, vector(packetBytes)"
237	3429019 2932 1171 438711 0.64944830467 90.851862919049 96 40 40 3840 153600
vector 238 FanetGpsrSecure.grayhole[20].wlan[0].mac.queue queueLength:vector ETV
attr interpolationmode sample-hold
attr source "count(packetPushed) - count(packetPopped) - count(packetRemoved) - count(packetDropped)"
attr title "queue length, vector"
238	3431951 5672 1171 438711 0.64944830467 90.851862919049 192 0 1 96 96
vector 239 FanetGpsrSecure.grayhole[20].wlan[0].mac.queue packetPopped:vector(packetBytes) ETV
attr interpolationmode none
attr title "packet popped, vector(packetBytes)"
239	3437623 2932 1171 438711 0.64944830467 90.851862919049 96 40 40 3840 153600
vector 240 FanetGpsrSecure.grayhole[20].wlan[0].mac.queue queueingTime:vector ETV
attr interpolationmode none
attr source queueingTime(packetPopped)
attr title "queueing times, vector"
attr unit s
240	3440555 2836 1171 438711 0.64944830467 90.851862919049 96 0 0 0 0
vector 241 FanetGpsrSecure.grayhole[20].wlan[0].mac sentDownPk:vector(packetBytes) ETV
attr interpolationmode none
attr source packetSentToLower
attr title "packets sent to lower layer, vector(packetBytes)"
241	3443391 2932 1171 438711 0.64944830467 90.851862919049 96 56 56 5376 301056
vector 242 FanetGpsrSecure.grayhole[5].wlan[0].mac rcvdPkFromLl:vector(packetBytes) ETV
attr interpolationmode none
attr source packetReceivedFromLower
attr title "packets received from lower layer, vector(packetBytes)"
242	3446323 28876 1214 438758 0.649471311405 90.851886080771 935 56 1084 171608 138874880
vector 243 FanetGpsrSecure.grayhole[5].wlan[0].mac passedUpPk:vector(packetBytes) ETV
attr interpolationmode none
attr source packetSentToUpper
attr title "packets passed to higher layer, vector(packetBytes)"
243	3475199 25586 1214 438758 0.649471311405 90.851886080771 833 40 1068 47712 17279136
vector 244 FanetGpsrSecure.grayhole[31].wlan[0].mac rcvdPkFromLl:vector(packetBytes) ETV
attr interpolationmode none
attr source packetReceivedFromLower
attr title "packets received from lower layer, vector(packetBytes)"
244	3500785 15702 1218 438754 0.649471440899 90.851885967122 509 56 1084 100464 83630624
vector 245 FanetGpsrSecure.grayhole[31].wlan[0].mac passedUpPk:vector(packetBytes) ETV
attr interpolationmode none
attr source packetSentToUpper
attr title "packets passed to higher layer, vector(packetBytes)"
245	3516487 13440 1218 438754 0.649471440899 90.851885967122 439 40 40 17560 702400
vector 246 FanetGpsrSecure.grayhole[24].wlan[0].mac rcvdPkFromHl:vector(packetBytes) ETV
attr interpolationmode none
attr source packetReceivedFromUpper
attr title "packets received from higher layer, vector(packetBytes)"
246	3529927 2656 1272 436874 0.662492931355 90.311155738775 87 40 40 3480 139200
vector 247 FanetGpsrSecure.grayhole[24].wlan[0].mac.queue packetPushed:vector(packetBytes) ETV
attr interpolationmode none
attr title "packet pushed, vector(packetBytes)"
247	3532583 2656 1272 436874 0.662492931355 90.311155738775 87 40 40 3480 139200
vector 248 FanetGpsrSecure.grayhole[24].wlan[0].mac.queue queueLength:vector ETV
attr interpolationmode sample-hold
attr source "count(packetPushed) - count(packetPopped) - count(packetRemoved) - count(packetDropped)"
attr title "queue length, vector"
248	3535239 5138 1272 436874 0.662492931355 90.311155738775 174 0 1 87 87
vector 249 FanetGpsrSecure.grayhole[24].wlan[0].mac.queue packetPopped:vector(packetBytes) ETV
attr interpolationmode none
attr title "packet popped, vector(packetBytes)"
249	3540377 2656 1272 436874 0.662492931355 90.311155738775 87 40 40 3480 139200
vector 250 FanetGpsrSecure.grayhole[24].wlan[0].mac.queue queueingTime:vector ETV
attr interpolationmode none
attr source queueingTime(packetPopped)
attr title "queueing times, vector"
attr unit s
250	3543033 2569 1272 436874 0.662492931355 90.311155738775 87 0 0 0 0
vector 251 FanetGpsrSecure.grayhole[24].wlan[0].mac sentDownPk:vector(packetBytes) ETV
attr interpolationmode none
attr source packetSentToLower
attr title "packets sent to lower layer, vector(packetBytes)"
251	3545602 2656 1272 436874 0.662492931355 90.311155738775 87 56 56 4872 272832
vector 252 FanetGpsrSecure.grayhole[26].wlan[0].mac rcvdPkFromLl:vector(packetBytes) ETV
attr interpolationmode none
attr source packetReceivedFromLower
attr title "packets received from lower layer, vector(packetBytes)"
252	3548258 32400 1315 438774 0.66251611206 90.851886301582 1049 56 1084 250980 222438704
vector 253 FanetGpsrSecure.grayhole[26].wlan[0].mac passedUpPk:vector(packetBytes) ETV
attr interpolationmode none
attr source packetSentToUpper
attr title "packets passed to higher layer, vector(packetBytes)"
253	3580658 26384 1315 438774 0.66251611206 90.851886301582 862 40 40 34480 1379200
vector 254 FanetGpsrSecure.grayhole[33].wlan[0].mac rcvdPkFromLl:vector(packetBytes) ETV
attr interpolationmode none
attr source packetReceivedFromLower
attr title "packets received from lower layer, vector(packetBytes)"
254	3607042 27568 1319 438762 0.662516147149 90.851886129282 891 56 1084 209236 184441776
vector 255 FanetGpsrSecure.grayhole[33].wlan[0].mac passedUpPk:vector(packetBytes) ETV
attr interpolationmode none
attr source packetSentToUpper
attr title "packets passed to higher layer, vector(packetBytes)"
255	3634610 22544 1319 438762 0.662516147149 90.851886129282 737 40 1068 30508 2318224
vector 256 FanetGpsrSecure.grayhole[27].wlan[0].mac rcvdPkFromHl:vector(packetBytes) ETV
attr interpolationmode none
attr source packetReceivedFromUpper
attr title "packets received from higher layer, vector(packetBytes)"
256	3657154 2780 1379 433313 0.666847517947 89.660645429977 91 40 40 3640 145600
vector 257 FanetGpsrSecure.grayhole[27].wlan[0].mac.queue packetPushed:vector(packetBytes) ETV
attr interpolationmode none
attr title "packet pushed, vector(packetBytes)"
257	3659934 2780 1379 433313 0.666847517947 89.660645429977 91 40 40 3640 145600
vector 258 FanetGpsrSecure.grayhole[27].wlan[0].mac.queue queueLength:vector ETV
attr interpolationmode sample-hold
attr source "count(packetPushed) - count(packetPopped) - count(packetRemoved) - count(packetDropped)"
attr title "queue length, vector"
258	3662714 5378 1379 433313 0.666847517947 89.660645429977 182 0 1 91 91
vector 259 FanetGpsrSecure.grayhole[27].wlan[0].mac.queue packetPopped:vector(packetBytes) ETV
attr interpolationmode none
attr title "packet popped, vector(packetBytes)"
259	3668092 2780 1379 433313 0.666847517947 89.660645429977 91 40 40 3640 145600
vector 260 FanetGpsrSecure.grayhole[27].wlan[0].mac.queue queueingTime:vector ETV
attr interpolationmode none
attr source queueingTime(packetPopped)
attr title "queueing times, vector"
attr unit s
260	3670872 2689 1379 433313 0.666847517947 89.660645429977 91 0 0 0 0
vector 261 FanetGpsrSecure.grayhole[27].wlan[0].mac sentDownPk:vector(packetBytes) ETV
attr interpolationmode none
attr source packetSentToLower
attr title "packets sent to lower layer, vector(packetBytes)"
261	3673561 2780 1379 433313 0.666847517947 89.660645429977 91 56 56 5096 285376
vector 262 FanetGpsrSecure.grayhole[7].wlan[0].mac rcvdPkFromHl:vector(packetBytes) ETV
attr interpolationmode none
attr source packetReceivedFromUpper
attr title "packets received from higher layer, vector(packetBytes)"
262	3676341 4662 1516 435759 0.760340928566 90.114682459506 149 40 1068 65584 66301792
vector 263 FanetGpsrSecure.grayhole[7].wlan[0].mac.queue packetPushed:vector(packetBytes) ETV
attr interpolationmode none
attr title "packet pushed, vector(packetBytes)"
263	3681003 4662 1516 435759 0.760340928566 90.114682459506 149 40 1068 65584 66301792
vector 264 FanetGpsrSecure.grayhole[7].wlan[0].mac.queue queueLength:vector ETV
attr interpolationmode sample-hold
attr source "count(packetPushed) - count(packetPopped) - count(packetRemoved) - count(packetDropped)"
attr title "queue length, vector"
264	3685665 8794 1516 435759 0.760340928566 90.114682459506 298 0 1 149 149
vector 265 FanetGpsrSecure.grayhole[7].wlan[0].mac.queue packetPopped:vector(packetBytes) ETV
attr interpolationmode none
attr title "packet popped, vector(packetBytes)"
265	3694459 4662 1516 435759 0.760340928566 90.114682459506 149 40 1068 65584 66301792
vector 266 FanetGpsrSecure.grayhole[7].wlan[0].mac.queue queueingTime:vector ETV
attr interpolationmode none
attr source queueingTime(packetPopped)
attr title "queueing times, vector"
attr unit s
266	3699121 4397 1516 435759 0.760340928566 90.114682459506 149 0 0 0 0
vector 267 FanetGpsrSecure.grayhole[7].wlan[0].mac sentDownPk:vector(packetBytes) ETV
attr interpolationmode none
attr source packetSentToLower
attr title "packets sent to lower layer, vector(packetBytes)"
267	3703518 4662 1516 435759 0.760340928566 90.114682459506 149 56 1084 67968 68438624
vector 268 FanetGpsrSecure.grayhole[24].wlan[0].mac rcvdPkFromLl:vector(packetBytes) ETV
attr interpolationmode none
attr source packetReceivedFromLower
attr title "packets received from lower layer, vector(packetBytes)"
268	3708180 28414 1603 438511 0.760364577943 90.794532489355 919 56 1084 236504 213827584
vector 269 FanetGpsrSecure.grayhole[24].wlan[0].mac passedUpPk:vector(packetBytes) ETV
attr interpolationmode none
attr source packetSentToUpper
attr title "packets passed to higher layer, vector(packetBytes)"
269	3736594 22585 1603 438511 0.760364577943 90.794532489355 739 40 40 29560 1182400
vector 270 FanetGpsrSecure.grayhole[30].wlan[0].mac rcvdPkFromLl:vector(packetBytes) ETV
attr interpolationmode none
attr source packetReceivedFromLower
attr title "packets received from lower layer, vector(packetBytes)"
270	3759179 23580 1611 437303 0.760364592616 90.487483652334 770 56 1084 100688 68042240
vector 271 FanetGpsrSecure.grayhole[30].wlan[0].mac passedUpPk:vector(packetBytes) ETV
attr interpolationmode none
attr source packetSentToUpper
attr title "packets passed to higher layer, vector(packetBytes)"
271	3782759 21764 1611 437303 0.760364592616 90.487483652334 714 40 40 28560 1142400
vector 272 FanetGpsrSecure.grayhole[15].wlan[0].mac rcvdPkFromHl:vector(packetBytes) ETV
attr interpolationmode none
attr source packetReceivedFromUpper
attr title "packets received from higher layer, vector(packetBytes)"
272	3804523 2840 1682 437124 0.852311660536 90.431204508293 93 40 40 3720 148800
vector 273 FanetGpsrSecure.grayhole[15].wlan[0].mac.queue packetPushed:vector(packetBytes) ETV
attr interpolationmode none
attr title "packet pushed, vector(packetBytes)"
273	3807363 2840 1682 437124 0.852311660536 90.431204508293 93 40 40 3720 148800
vector 274 FanetGpsrSecure.grayhole[15].wlan[0].mac.queue queueLength:vector ETV
attr interpolationmode sample-hold
attr source "count(packetPushed) - count(packetPopped) - count(packetRemoved) - count(packetDropped)"
attr title "queue length, vector"
274	3810203 5494 1682 437124 0.852311660536 90.431204508293 186 0 1 93 93
vector 275 FanetGpsrSecure.grayhole[15].wlan[0].mac.queue packetPopped:vector(packetBytes) ETV
attr interpolationmode none
attr title "packet popped, vector(packetBytes)"
275	3815697 2840 1682 437124 0.852311660536 90.431204508293 93 40 40 3720 148800
vector 276 FanetGpsrSecure.grayhole[15].wlan[0].mac.queue queueingTime:vector ETV
attr interpolationmode none
attr source queueingTime(packetPopped)
attr title "queueing times, vector"
attr unit s
276	3818537 2747 1682 437124 0.852311660536 90.431204508293 93 0 0 0 0
vector 277 FanetGpsrSecure.grayhole[15].wlan[0].mac sentDownPk:vector(packetBytes) ETV
attr interpolationmode none
attr source packetSentToLower
attr title "packets sent to lower layer, vector(packetBytes)"
277	3821284 2840 1682 437124 0.852311660536 90.431204508293 93 56 56 5208 291648
vector 278 FanetGpsrSecure.grayhole[2].wlan[0].mac rcvdPkFromHl:vector(packetBytes) ETV
attr interpolationmode none
attr source packetReceivedFromUpper
attr title "packets received from higher layer, vector(packetBytes)"
[...]
vector 404 FanetGpsrSecure.grayhole[32].wlan[0].mac.queue queueLength:vector ETV
attr interpolationmode sample-hold
attr source "count(packetPushed) - count(packetPopped) - count(packetRemoved) - count(packetDropped)"
attr title "queue length, vector"
404	4317741 5418 4079 436244 1.307318960316 90.172336117362 184 0 1 92 92
vector 405 FanetGpsrSecure.grayhole[32].wlan[0].mac.queue packetPopped:vector(packetBytes) ETV
attr interpolationmode none
attr title "packet popped, vector(packetBytes)"
405	4323159 2801 4079 436244 1.307318960316 90.172336117362 92 40 40 3680 147200
vector 406 FanetGpsrSecure.grayhole[32].wlan[0].mac.queue queueingTime:vector ETV
attr interpolationmode none
attr source queueingTime(packetPopped)
attr title "queueing times, vector"
attr unit s
406	4325960 2709 4079 436244 1.307318960316 90.172336117362 92 0 0 0 0
vector 407 FanetGpsrSecure.grayhole[32].wlan[0].mac sentDownPk:vector(packetBytes) ETV
attr interpolationmode none
attr source packetSentToLower
attr title "packets sent to lower layer, vector(packetBytes)"
407	4328669 2801 4079 436244 1.307318960316 90.172336117362 92 56 56 5152 288512
vector 408 FanetGpsrSecure.grayhole[19].wlan[0].mac rcvdPkFromHl:vector(packetBytes) ETV
attr interpolationmode none
attr source packetReceivedFromUpper
attr title "packets received from higher layer, vector(packetBytes)"
408	4331470 2684 4185 437458 1.341140129836 90.49615419493 88 40 40 3520 140800
vector 409 FanetGpsrSecure.grayhole[19].wlan[0].mac.queue packetPushed:vector(packetBytes) ETV
attr interpolationmode none
attr title "packet pushed, vector(packetBytes)"
409	4334154 2684 4185 437458 1.341140129836 90.49615419493 88 40 40 3520 140800
vector 410 FanetGpsrSecure.grayhole[19].wlan[0].mac.queue queueLength:vector ETV
attr interpolationmode sample-hold
attr source "count(packetPushed) - count(packetPopped) - count(packetRemoved) - count(packetDropped)"
attr title "queue length, vector"
410	4336838 5192 4185 437458 1.341140129836 90.49615419493 176 0 1 88 88
vector 411 FanetGpsrSecure.grayhole[19].wlan[0].mac.queue packetPopped:vector(packetBytes) ETV
attr interpolationmode none
attr title "packet popped, vector(packetBytes)"
411	4342030 2684 4185 437458 1.341140129836 90.49615419493 88 40 40 3520 140800
vector 412 FanetGpsrSecure.grayhole[19].wlan[0].mac.queue queueingTime:vector ETV
attr interpolationmode none
attr source queueingTime(packetPopped)
attr title "queueing times, vector"
attr unit s
412	4344714 2596 4185 437458 1.341140129836 90.49615419493 88 0 0 0 0
vector 413 FanetGpsrSecure.grayhole[19].wlan[0].mac sentDownPk:vector(packetBytes) ETV
attr interpolationmode none
attr source packetSentToLower
attr title "packets sent to lower layer, vector(packetBytes)"
413	4347310 2684 4185 437458 1.341140129836 90.49615419493 88 56 56 4928 275968
vector 414 FanetGpsrSecure.grayhole[30].wlan[0].mac rcvdPkFromHl:vector(packetBytes) ETV
attr interpolationmode none
attr source packetReceivedFromUpper
attr title "packets received from higher layer, vector(packetBytes)"
414	4349994 2719 4277 432928 1.348008227302 89.605779662496 89 40 40 3560 142400
vector 415 FanetGpsrSecure.grayhole[30].wlan[0].mac.queue packetPushed:vector(packetBytes) ETV
attr interpolationmode none
attr title "packet pushed, vector(packetBytes)"
415	4352713 2719 4277 432928 1.348008227302 89.605779662496 89 40 40 3560 142400
vector 416 FanetGpsrSecure.grayhole[30].wlan[0].mac.queue queueLength:vector ETV
attr interpolationmode sample-hold
attr source "count(packetPushed) - count(packetPopped) - count(packetRemoved) - count(packetDropped)"
attr title "queue length, vector"
416	4355432 5260 4277 432928 1.348008227302 89.605779662496 178 0 1 89 89
vector 417 FanetGpsrSecure.grayhole[30].wlan[0].mac.queue packetPopped:vector(packetBytes) ETV
attr interpolationmode none
attr title "packet popped, vector(packetBytes)"
417	4360692 2719 4277 432928 1.348008227302 89.605779662496 89 40 40 3560 142400
vector 418 FanetGpsrSecure.grayhole[30].wlan[0].mac.queue queueingTime:vector ETV
attr interpolationmode none
attr source queueingTime(packetPopped)
attr title "queueing times, vector"
attr unit s
418	4363411 2630 4277 432928 1.348008227302 89.605779662496 89 0 0 0 0
vector 419 FanetGpsrSecure.grayhole[30].wlan[0].mac sentDownPk:vector(packetBytes) ETV
attr interpolationmode none
attr source packetSentToLower
attr title "packets sent to lower layer, vector(packetBytes)"
419	4366041 2719 4277 432928 1.348008227302 89.605779662496 89 56 56 4984 279104
vector 420 FanetGpsrSecure.grayhole[31].wlan[0].mac rcvdPkFromHl:vector(packetBytes) ETV
attr interpolationmode none
attr source packetReceivedFromUpper
attr title "packets received from higher layer, vector(packetBytes)"
420	4368760 2777 4386 433857 1.364933292847 89.816272005902 91 40 40 3640 145600
vector 421 FanetGpsrSecure.grayhole[31].wlan[0].mac.queue packetPushed:vector(packetBytes) ETV
attr interpolationmode none
attr title "packet pushed, vector(packetBytes)"
421	4371537 2777 4386 433857 1.364933292847 89.816272005902 91 40 40 3640 145600
vector 422 FanetGpsrSecure.grayhole[31].wlan[0].mac.queue queueLength:vector ETV
attr interpolationmode sample-hold
attr source "count(packetPushed) - count(packetPopped) - count(packetRemoved) - count(packetDropped)"
attr title "queue length, vector"
422	4374314 5372 4386 433857 1.364933292847 89.816272005902 182 0 1 91 91
vector 423 FanetGpsrSecure.grayhole[31].wlan[0].mac.queue packetPopped:vector(packetBytes) ETV
attr interpolationmode none
attr title "packet popped, vector(packetBytes)"
423	4379686 2777 4386 433857 1.364933292847 89.816272005902 91 40 40 3640 145600
vector 424 FanetGpsrSecure.grayhole[31].wlan[0].mac.queue queueingTime:vector ETV
attr interpolationmode none
attr source queueingTime(packetPopped)
attr title "queueing times, vector"
attr unit s
424	4382463 2686 4386 433857 1.364933292847 89.816272005902 91 0 0 0 0
vector 425 FanetGpsrSecure.grayhole[31].wlan[0].mac sentDownPk:vector(packetBytes) ETV
attr interpolationmode none
attr source packetSentToLower
attr title "packets sent to lower layer, vector(packetBytes)"
425	4385149 2777 4386 433857 1.364933292847 89.816272005902 91 56 56 5096 285376
vector 426 FanetGpsrSecure.grayhole[22].wlan[0].mac rcvdPkFromHl:vector(packetBytes) ETV
attr interpolationmode none
attr source packetReceivedFromUpper
attr title "packets received from higher layer, vector(packetBytes)"
426	4387926 2748 4481 438074 1.368126060581 90.689233929852 90 40 40 3600 144000
vector 427 FanetGpsrSecure.grayhole[22].wlan[0].mac.queue packetPushed:vector(packetBytes) ETV
attr interpolationmode none
attr title "packet pushed, vector(packetBytes)"
427	4390674 2748 4481 438074 1.368126060581 90.689233929852 90 40 40 3600 144000
vector 428 FanetGpsrSecure.grayhole[22].wlan[0].mac.queue queueLength:vector ETV
attr interpolationmode sample-hold
attr source "count(packetPushed) - count(packetPopped) - count(packetRemoved) - count(packetDropped)"
attr title "queue length, vector"
428	4393422 5316 4481 438074 1.368126060581 90.689233929852 180 0 1 90 90
vector 429 FanetGpsrSecure.grayhole[22].wlan[0].mac.queue packetPopped:vector(packetBytes) ETV
attr interpolationmode none
attr title "packet popped, vector(packetBytes)"
429	4398738 2748 4481 438074 1.368126060581 90.689233929852 90 40 40 3600 144000
vector 430 FanetGpsrSecure.grayhole[22].wlan[0].mac.queue queueingTime:vector ETV
attr interpolationmode none
attr source queueingTime(packetPopped)
attr title "queueing times, vector"
attr unit s
430	4401486 2658 4481 438074 1.368126060581 90.689233929852 90 0 0 0 0
vector 431 FanetGpsrSecure.grayhole[22].wlan[0].mac sentDownPk:vector(packetBytes) ETV
attr interpolationmode none
attr source packetSentToLower
attr title "packets sent to lower layer, vector(packetBytes)"
431	4404144 2748 4481 438074 1.368126060581 90.689233929852 90 56 56 5040 282240
vector 432 FanetGpsrSecure.grayhole[6].wlan[0].mac rcvdPkFromHl:vector(packetBytes) ETV
attr interpolationmode none
attr source packetReceivedFromUpper
attr title "packets received from higher layer, vector(packetBytes)"
432	4406892 2780 4584 435888 1.391923358198 90.136530136695 91 40 40 3640 145600
vector 433 FanetGpsrSecure.grayhole[6].wlan[0].mac.queue packetPushed:vector(packetBytes) ETV
attr interpolationmode none
attr title "packet pushed, vector(packetBytes)"
433	4409672 2780 4584 435888 1.391923358198 90.136530136695 91 40 40 3640 145600
vector 434 FanetGpsrSecure.grayhole[6].wlan[0].mac.queue queueLength:vector ETV
attr interpolationmode sample-hold
attr source "count(packetPushed) - count(packetPopped) - count(packetRemoved) - count(packetDropped)"
attr title "queue length, vector"
434	4412452 5378 4584 435888 1.391923358198 90.136530136695 182 0 1 91 91
vector 435 FanetGpsrSecure.grayhole[6].wlan[0].mac.queue packetPopped:vector(packetBytes) ETV
attr interpolationmode none
attr title "packet popped, vector(packetBytes)"
435	4417830 2780 4584 435888 1.391923358198 90.136530136695 91 40 40 3640 145600
vector 436 FanetGpsrSecure.grayhole[6].wlan[0].mac.queue queueingTime:vector ETV
attr interpolationmode none
attr source queueingTime(packetPopped)
attr title "queueing times, vector"
attr unit s
436	4420610 2689 4584 435888 1.391923358198 90.136530136695 91 0 0 0 0
vector 437 FanetGpsrSecure.grayhole[6].wlan[0].mac sentDownPk:vector(packetBytes) ETV
attr interpolationmode none
attr source packetSentToLower
attr title "packets sent to lower layer, vector(packetBytes)"
437	4423299 2780 4584 435888 1.391923358198 90.136530136695 91 56 56 5096 285376
vector 438 FanetGpsrSecure.grayhole[21].wlan[0].mac rcvdPkFromHl:vector(packetBytes) ETV
attr interpolationmode none
attr source packetReceivedFromUpper
attr title "packets received from higher layer, vector(packetBytes)"
438	4426079 2687 4952 434385 1.404647744261 89.897850921617 88 40 40 3520 140800
vector 439 FanetGpsrSecure.grayhole[21].wlan[0].mac.queue packetPushed:vector(packetBytes) ETV
attr interpolationmode none
attr title "packet pushed, vector(packetBytes)"
439	4428766 2687 4952 434385 1.404647744261 89.897850921617 88 40 40 3520 140800
vector 440 FanetGpsrSecure.grayhole[21].wlan[0].mac.queue queueLength:vector ETV
attr interpolationmode sample-hold
attr source "count(packetPushed) - count(packetPopped) - count(packetRemoved) - count(packetDropped)"
attr title "queue length, vector"
440	4431453 5198 4952 434385 1.404647744261 89.897850921617 176 0 1 88 88
vector 441 FanetGpsrSecure.grayhole[21].wlan[0].mac.queue packetPopped:vector(packetBytes) ETV
attr interpolationmode none
attr title "packet popped, vector(packetBytes)"
441	4436651 2687 4952 434385 1.404647744261 89.897850921617 88 40 40 3520 140800
vector 442 FanetGpsrSecure.grayhole[21].wlan[0].mac.queue queueingTime:vector ETV
attr interpolationmode none
attr source queueingTime(packetPopped)
attr title "queueing times, vector"
attr unit s
442	4439338 2599 4952 434385 1.404647744261 89.897850921617 88 0 0 0 0
vector 443 FanetGpsrSecure.grayhole[21].wlan[0].mac sentDownPk:vector(packetBytes) ETV
attr interpolationmode none
attr source packetSentToLower
attr title "packets sent to lower layer, vector(packetBytes)"
443	4441937 2687 4952 434385 1.404647744261 89.897850921617 88 56 56 4928 275968
vector 444 FanetGpsrSecure.grayhole[14].wlan[0].mac rcvdPkFromHl:vector(packetBytes) ETV
attr interpolationmode none
attr source packetReceivedFromUpper
attr title "packets received from higher layer, vector(packetBytes)"
444	4444624 2591 5154 432468 1.419482612982 89.506344172637 85 40 40 3400 136000
vector 445 FanetGpsrSecure.grayhole[14].wlan[0].mac.queue packetPushed:vector(packetBytes) ETV
attr interpolationmode none
attr title "packet pushed, vector(packetBytes)"
445	4447215 2591 5154 432468 1.419482612982 89.506344172637 85 40 40 3400 136000
vector 446 FanetGpsrSecure.grayhole[14].wlan[0].mac.queue queueLength:vector ETV
attr interpolationmode sample-hold
attr source "count(packetPushed) - count(packetPopped) - count(packetRemoved) - count(packetDropped)"
attr title "queue length, vector"
446	4449806 5012 5154 432468 1.419482612982 89.506344172637 170 0 1 85 85
vector 447 FanetGpsrSecure.grayhole[14].wlan[0].mac.queue packetPopped:vector(packetBytes) ETV
attr interpolationmode none
attr title "packet popped, vector(packetBytes)"
447	4454818 2591 5154 432468 1.419482612982 89.506344172637 85 40 40 3400 136000
vector 448 FanetGpsrSecure.grayhole[14].wlan[0].mac.queue queueingTime:vector ETV
attr interpolationmode none
attr source queueingTime(packetPopped)
attr title "queueing times, vector"
attr unit s
448	4457409 2506 5154 432468 1.419482612982 89.506344172637 85 0 0 0 0
vector 449 FanetGpsrSecure.grayhole[14].wlan[0].mac sentDownPk:vector(packetBytes) ETV
attr interpolationmode none
attr source packetSentToLower
attr title "packets sent to lower layer, vector(packetBytes)"
449	4459915 2591 5154 432468 1.419482612982 89.506344172637 85 56 56 4760 266560
vector 450 FanetGpsrSecure.grayhole[39].wlan[0].mac rcvdPkFromHl:vector(packetBytes) ETV
attr interpolationmode none
attr source packetReceivedFromUpper
attr title "packets received from higher layer, vector(packetBytes)"
450	4462506 2688 5251 433967 1.482574956724 89.825398795073 88 40 40 3520 140800
vector 451 FanetGpsrSecure.grayhole[39].wlan[0].mac.queue packetPushed:vector(packetBytes) ETV
attr interpolationmode none
attr title "packet pushed, vector(packetBytes)"
451	4465194 2688 5251 433967 1.482574956724 89.825398795073 88 40 40 3520 140800
vector 452 FanetGpsrSecure.grayhole[39].wlan[0].mac.queue queueLength:vector ETV
attr interpolationmode sample-hold
attr source "count(packetPushed) - count(packetPopped) - count(packetRemoved) - count(packetDropped)"
attr title "queue length, vector"
452	4467882 5200 5251 433967 1.482574956724 89.825398795073 176 0 1 88 88
vector 453 FanetGpsrSecure.grayhole[39].wlan[0].mac.queue packetPopped:vector(packetBytes) ETV
attr interpolationmode none
attr title "packet popped, vector(packetBytes)"
453	4473082 2688 5251 433967 1.482574956724 89.825398795073 88 40 40 3520 140800
vector 454 FanetGpsrSecure.grayhole[39].wlan[0].mac.queue queueingTime:vector ETV
attr interpolationmode none
attr source queueingTime(packetPopped)
attr title "queueing times, vector"
attr unit s
454	4475770 2600 5251 433967 1.482574956724 89.825398795073 88 0 0 0 0
vector 455 FanetGpsrSecure.grayhole[39].wlan[0].mac sentDownPk:vector(packetBytes) ETV
attr interpolationmode none
attr source packetSentToLower
attr title "packets sent to lower layer, vector(packetBytes)"
455	4478370 2688 5251 433967 1.482574956724 89.825398795073 88 56 56 4928 275968
vector 456 FanetGpsrSecure.grayhole[5].wlan[0].mac rcvdPkFromHl:vector(packetBytes) ETV
attr interpolationmode none
attr source packetReceivedFromUpper
attr title "packets received from higher layer, vector(packetBytes)"
456	4481058 3310 5340 437732 1.484042235417 90.603813784428 107 40 1068 18672 16117536
vector 457 FanetGpsrSecure.grayhole[5].wlan[0].mac.queue packetPushed:vector(packetBytes) ETV
attr interpolationmode none
attr title "packet pushed, vector(packetBytes)"
457	4484368 3310 5340 437732 1.484042235417 90.603813784428 107 40 1068 18672 16117536
vector 458 FanetGpsrSecure.grayhole[5].wlan[0].mac.queue queueLength:vector ETV
attr interpolationmode sample-hold
attr source "count(packetPushed) - count(packetPopped) - count(packetRemoved) - count(packetDropped)"
attr title "queue length, vector"
458	4487678 6350 5340 437732 1.484042235417 90.603813784428 214 0 1 107 107
vector 459 FanetGpsrSecure.grayhole[5].wlan[0].mac.queue packetPopped:vector(packetBytes) ETV
attr interpolationmode none
attr title "packet popped, vector(packetBytes)"
459	4494028 3310 5340 437732 1.484042235417 90.603813784428 107 40 1068 18672 16117536
vector 460 FanetGpsrSecure.grayhole[5].wlan[0].mac.queue queueingTime:vector ETV
attr interpolationmode none
attr source queueingTime(packetPopped)
attr title "queueing times, vector"
attr unit s
460	4497338 3175 5340 437732 1.484042235417 90.603813784428 107 0 0 0 0
vector 461 FanetGpsrSecure.grayhole[5].wlan[0].mac sentDownPk:vector(packetBytes) ETV
attr interpolationmode none
attr source packetSentToLower
attr title "packets sent to lower layer, vector(packetBytes)"
461	4500513 3310 5340 437732 1.484042235417 90.603813784428 107 56 1084 20384 16742432
vector 462 FanetGpsrSecure.grayhole[18].wlan[0].mac rcvdPkFromHl:vector(packetBytes) ETV
attr interpolationmode none
attr source packetReceivedFromUpper
attr title "packets received from higher layer, vector(packetBytes)"
462	4503823 2755 5440 433122 1.498847002862 89.654219691639 90 40 40 3600 144000
vector 463 FanetGpsrSecure.grayhole[18].wlan[0].mac.queue packetPushed:vector(packetBytes) ETV
attr interpolationmode none
attr title "packet pushed, vector(packetBytes)"
463	4506578 2755 5440 433122 1.498847002862 89.654219691639 90 40 40 3600 144000
vector 464 FanetGpsrSecure.grayhole[18].wlan[0].mac.queue queueLength:vector ETV
attr interpolationmode sample-hold
attr source "count(packetPushed) - count(packetPopped) - count(packetRemoved) - count(packetDropped)"
attr title "queue length, vector"
464	4509333 5330 5440 433122 1.498847002862 89.654219691639 180 0 1 90 90
vector 465 FanetGpsrSecure.grayhole[18].wlan[0].mac.queue packetPopped:vector(packetBytes) ETV
attr interpolationmode none
attr title "packet popped, vector(packetBytes)"
465	4514663 2755 5440 433122 1.498847002862 89.654219691639 90 40 40 3600 144000
vector 466 FanetGpsrSecure.grayhole[18].wlan[0].mac.queue queueingTime:vector ETV
attr interpolationmode none
attr source queueingTime(packetPopped)
attr title "queueing times, vector"
attr unit s
466	4517418 2665 5440 433122 1.498847002862 89.654219691639 90 0 0 0 0
vector 467 FanetGpsrSecure.grayhole[18].wlan[0].mac sentDownPk:vector(packetBytes) ETV
attr interpolationmode none
attr source packetSentToLower
attr title "packets sent to lower layer, vector(packetBytes)"
467	4520083 2755 5440 433122 1.498847002862 89.654219691639 90 56 56 5040 282240
vector 468 FanetGpsrSecure.grayhole[11].wlan[0].mac packetDropNotAddressedToUs:vector(packetBytes) ETV
attr interpolationmode none
attr source packetDropReasonIsNotAddressedToUs(packetDropped)
attr title "packet drop: not addressed to us, vector(packetBytes)"
468	4522838 1661 128898 435013 27.000732312883 90.000731924497 51 1084 1084 55284 59927856
vector 469 FanetGpsrSecure.grayhole[10].wlan[0].mac packetDropNotAddressedToUs:vector(packetBytes) ETV
attr interpolationmode none
attr source packetDropReasonIsNotAddressedToUs(packetDropped)
attr title "packet drop: not addressed to us, vector(packetBytes)"
469	4524499 1287 265069 434922 55.000366316973 90.000365986026 39 1084 1084 42276 45827184
vector 470 FanetGpsrSecure.grayhole[20].wlan[0].mac packetDropNotAddressedToUs:vector(packetBytes) ETV
attr interpolationmode none
attr source packetDropReasonIsNotAddressedToUs(packetDropped)
attr title "packet drop: not addressed to us, vector(packetBytes)"
470	4525786 32 279614 279614 58.00073238147 58.00073238147 1 1084 1084 1084 1175056
vector 471 FanetGpsrSecure.grayhole[10].wlan[0].mac packetDropIncorrectlyReceived:vector(packetBytes) ETV
attr interpolationmode none
attr source packetDropReasonIsIncorrectlyReceived(packetDropped)
attr title "packet drop: incorrectly received, vector(packetBytes)"
471	4525818 188 387036 387036 80.231863712228 80.231863712228 1 56 56 56 3136
vector 472 FanetGpsrSecure.grayhole[0].app[0] throughput:vector ETV
attr source throughput(packetReceived)
attr title "throughput, vector"
attr unit bps
472	4526192 17005 438784 438784 0.1 90.851886410089 909 0 0 0 0
