file 48317465 1633792449                                        
version 2
run _3D_Turtle_Grayhole_Secure-0-20211009-17:12:31-9272
attr configname _3D_Turtle_Grayhole_Secure
attr datetime 20211009-17:12:31
attr experiment _3D_Turtle_Grayhole_Secure
attr inifile omnetpp.ini
attr iterationvars ""
attr iterationvarsf ""
attr measurement ""
attr network FanetGpsrGrayholeSecure
attr processid 9272
attr repetition 0
attr replication #0
attr resultdir results
attr runnumber 0
attr seedset 0
param *.host[*].osgModel "\"3d/drone.ive.100.scale.0,0,90.rot\""
param *.grayhole[*].osgModel "\"3d/glider.osgb.100.scale.0,0,90.rot\""
param *.host*.mobility.typename "\"TurtleMobility\""
param *.host*.mobility.turtleScript "xmldoc(\"config.xml\")"
param *.grayhole*.mobility.typename "\"TurtleMobility\""
param *.grayhole*.mobility.turtleScript "xmldoc(\"config.xml\")"
param *.host[0].numApps 1
param *.host[0].app[0].typename "\"UdpBasicApp\""
param *.host[0].app[0].destAddresses "\"host[20]\""
param *.host[0].app[0].destPort 5000
param *.host[0].app[0].messageLength 1000B
param *.host[0].app[0].sendInterval exponential(1s)
param *.host[0].app[0].packetName "\"UDPData\""
param *.host[20].numApps 1
param *.host[20].app[0].typename "\"UdpSink\""
param *.host[20].app[0].localPort 5000
param **.wlan[*].bitrate 24Mbps
param *.configurator.addStaticRoutes false
param **.netmaskRoutes "\"\""
param **.arp.typename "\"GlobalArp\""
param **.planarizationMode "\"RNG\""
param **.beaconInterval 1s
param *.host*.wlan[0].typename "\"AckingWirelessInterface\""
param *.host*.wlan[0].radio.transmitter.communicationRange 300m
param *.grayhole*.wlan[0].typename "\"AckingWirelessInterface\""
param *.grayhole*.wlan[0].radio.transmitter.communicationRange 300m
param *.visualizer.osgVisualizer.typename "\"IntegratedOsgVisualizer\""
param *.visualizer.osgVisualizer.sceneVisualizer.typename "\"SceneOsgEarthVisualizer\""
param *.visualizer.osgVisualizer.sceneVisualizer.mapFile "\"unical.earth\""
param *.coordinateSystem.sceneLongitude 16.2215deg
param *.coordinateSystem.sceneLatitude 39.3701deg
param *.visualizer.osgVisualizer.sceneVisualizer.clearColor "\"skyblue\""
param *.visualizer.osgVisualizer.sceneVisualizer.sceneShading false
param *.visualizer.osgVisualizer.sceneVisualizer.sceneColor "\"#000000\""
param *.visualizer.osgVisualizer.sceneVisualizer.sceneOpacity 0.0
param *.visualizer.osgVisualizer.sceneVisualizer.sceneImageSize 4000m
param *.visualizer.osgVisualizer.sceneVisualizer.axisLength 2000m
param *.visualizer.osgVisualizer.sceneVisualizer.sceneMinX 0m
param *.visualizer.osgVisualizer.sceneVisualizer.sceneMinY 0m
param *.visualizer.osgVisualizer.sceneVisualizer.sceneMinZ 0m
param *.visualizer.osgVisualizer.sceneVisualizer.sceneMaxX 1700m
param *.visualizer.osgVisualizer.sceneVisualizer.sceneMaxY 300m
param *.visualizer.osgVisualizer.sceneVisualizer.sceneMaxZ 20m
param *.coordinateSystem.sceneAltitude 20m
param *.coordinateSystem.sceneHeading 169deg
param *.visualizer.osgVisualizer.networkNodeVisualizer.displayModuleName false
param *.visualizer.*.mobilityVisualizer.displayMobility true
param *.visualizer.*.mobilityVisualizer.displayPositions true
param *.visualizer.*.mobilityVisualizer.displayOrientations true
param *.visualizer.*.mobilityVisualizer.displayVelocities true
param *.visualizer.*.mobilityVisualizer.displayMovementTrails true
param *.visualizer.*.mobilityVisualizer.animationSpeed 1
param **.constraintAreaMinX 0m
param **.constraintAreaMinY 0m
param **.constraintAreaMinZ 200m
param **.constraintAreaMaxX 1500m
param **.constraintAreaMaxY 800m
param **.constraintAreaMaxZ 400m

vector 0 FanetGpsrGrayholeSecure.host[0].wlan[0].radio radioMode:vector ETV
attr interpolationmode sample-hold
attr source radioModeChanged
attr title "Radio mode, vector"
vector 1 FanetGpsrGrayholeSecure.host[1].wlan[0].radio radioMode:vector ETV
attr interpolationmode sample-hold
attr source radioModeChanged
attr title "Radio mode, vector"
vector 2 FanetGpsrGrayholeSecure.host[2].wlan[0].radio radioMode:vector ETV
attr interpolationmode sample-hold
attr source radioModeChanged
attr title "Radio mode, vector"
vector 3 FanetGpsrGrayholeSecure.host[3].wlan[0].radio radioMode:vector ETV
attr interpolationmode sample-hold
attr source radioModeChanged
attr title "Radio mode, vector"
vector 4 FanetGpsrGrayholeSecure.host[4].wlan[0].radio radioMode:vector ETV
attr interpolationmode sample-hold
attr source radioModeChanged
attr title "Radio mode, vector"
vector 5 FanetGpsrGrayholeSecure.host[5].wlan[0].radio radioMode:vector ETV
attr interpolationmode sample-hold
attr source radioModeChanged
attr title "Radio mode, vector"
vector 6 FanetGpsrGrayholeSecure.host[6].wlan[0].radio radioMode:vector ETV
attr interpolationmode sample-hold
attr source radioModeChanged
attr title "Radio mode, vector"
vector 7 FanetGpsrGrayholeSecure.host[7].wlan[0].radio radioMode:vector ETV
attr interpolationmode sample-hold
attr source radioModeChanged
attr title "Radio mode, vector"
vector 8 FanetGpsrGrayholeSecure.host[8].wlan[0].radio radioMode:vector ETV
attr interpolationmode sample-hold
attr source radioModeChanged
attr title "Radio mode, vector"
vector 9 FanetGpsrGrayholeSecure.host[9].wlan[0].radio radioMode:vector ETV
attr interpolationmode sample-hold
attr source radioModeChanged
attr title "Radio mode, vector"
vector 10 FanetGpsrGrayholeSecure.host[10].wlan[0].radio radioMode:vector ETV
attr interpolationmode sample-hold
attr source radioModeChanged
attr title "Radio mode, vector"
vector 11 FanetGpsrGrayholeSecure.host[11].wlan[0].radio radioMode:vector ETV
attr interpolationmode sample-hold
attr source radioModeChanged
attr title "Radio mode, vector"
vector 12 FanetGpsrGrayholeSecure.host[12].wlan[0].radio radioMode:vector ETV
attr interpolationmode sample-hold
attr source radioModeChanged
attr title "Radio mode, vector"
vector 13 FanetGpsrGrayholeSecure.host[13].wlan[0].radio radioMode:vector ETV
attr interpolationmode sample-hold
attr source radioModeChanged
attr title "Radio mode, vector"
vector 14 FanetGpsrGrayholeSecure.host[14].wlan[0].radio radioMode:vector ETV
attr interpolationmode sample-hold
attr source radioModeChanged
attr title "Radio mode, vector"
vector 15 FanetGpsrGrayholeSecure.host[15].wlan[0].radio radioMode:vector ETV
attr interpolationmode sample-hold
attr source radioModeChanged
attr title "Radio mode, vector"
vector 16 FanetGpsrGrayholeSecure.host[16].wlan[0].radio radioMode:vector ETV
attr interpolationmode sample-hold
attr source radioModeChanged
attr title "Radio mode, vector"
vector 17 FanetGpsrGrayholeSecure.host[17].wlan[0].radio radioMode:vector ETV
attr interpolationmode sample-hold
attr source radioModeChanged
attr title "Radio mode, vector"
vector 18 FanetGpsrGrayholeSecure.host[18].wlan[0].radio radioMode:vector ETV
attr interpolationmode sample-hold
attr source radioModeChanged
attr title "Radio mode, vector"
vector 19 FanetGpsrGrayholeSecure.host[19].wlan[0].radio radioMode:vector ETV
attr interpolationmode sample-hold
attr source radioModeChanged
attr title "Radio mode, vector"
vector 20 FanetGpsrGrayholeSecure.host[20].wlan[0].radio radioMode:vector ETV
attr interpolationmode sample-hold
attr source radioModeChanged
attr title "Radio mode, vector"
vector 21 FanetGpsrGrayholeSecure.host[21].wlan[0].radio radioMode:vector ETV
attr interpolationmode sample-hold
attr source radioModeChanged
attr title "Radio mode, vector"
vector 22 FanetGpsrGrayholeSecure.host[22].wlan[0].radio radioMode:vector ETV
attr interpolationmode sample-hold
attr source radioModeChanged
attr title "Radio mode, vector"
vector 23 FanetGpsrGrayholeSecure.host[23].wlan[0].radio radioMode:vector ETV
attr interpolationmode sample-hold
attr source radioModeChanged
attr title "Radio mode, vector"
vector 24 FanetGpsrGrayholeSecure.host[24].wlan[0].radio radioMode:vector ETV
attr interpolationmode sample-hold
attr source radioModeChanged
attr title "Radio mode, vector"
vector 25 FanetGpsrGrayholeSecure.grayhole[0].wlan[0].radio radioMode:vector ETV
attr interpolationmode sample-hold
attr source radioModeChanged
attr title "Radio mode, vector"
vector 26 FanetGpsrGrayholeSecure.grayhole[1].wlan[0].radio radioMode:vector ETV
attr interpolationmode sample-hold
attr source radioModeChanged
attr title "Radio mode, vector"
vector 27 FanetGpsrGrayholeSecure.grayhole[2].wlan[0].radio radioMode:vector ETV
attr interpolationmode sample-hold
attr source radioModeChanged
attr title "Radio mode, vector"
vector 28 FanetGpsrGrayholeSecure.grayhole[3].wlan[0].radio radioMode:vector ETV
attr interpolationmode sample-hold
attr source radioModeChanged
attr title "Radio mode, vector"
vector 29 FanetGpsrGrayholeSecure.grayhole[4].wlan[0].radio radioMode:vector ETV
attr interpolationmode sample-hold
attr source radioModeChanged
attr title "Radio mode, vector"
vector 30 FanetGpsrGrayholeSecure.grayhole[5].wlan[0].radio radioMode:vector ETV
attr interpolationmode sample-hold
attr source radioModeChanged
attr title "Radio mode, vector"
vector 31 FanetGpsrGrayholeSecure.grayhole[6].wlan[0].radio radioMode:vector ETV
attr interpolationmode sample-hold
attr source radioModeChanged
attr title "Radio mode, vector"
vector 32 FanetGpsrGrayholeSecure.grayhole[7].wlan[0].radio radioMode:vector ETV
attr interpolationmode sample-hold
attr source radioModeChanged
attr title "Radio mode, vector"
vector 33 FanetGpsrGrayholeSecure.grayhole[8].wlan[0].radio radioMode:vector ETV
attr interpolationmode sample-hold
attr source radioModeChanged
attr title "Radio mode, vector"
vector 34 FanetGpsrGrayholeSecure.grayhole[9].wlan[0].radio radioMode:vector ETV
attr interpolationmode sample-hold
attr source radioModeChanged
attr title "Radio mode, vector"
vector 35 FanetGpsrGrayholeSecure.grayhole[10].wlan[0].radio radioMode:vector ETV
attr interpolationmode sample-hold
attr source radioModeChanged
attr title "Radio mode, vector"
vector 36 FanetGpsrGrayholeSecure.grayhole[11].wlan[0].radio radioMode:vector ETV
attr interpolationmode sample-hold
attr source radioModeChanged
attr title "Radio mode, vector"
vector 37 FanetGpsrGrayholeSecure.grayhole[12].wlan[0].radio radioMode:vector ETV
attr interpolationmode sample-hold
attr source radioModeChanged
attr title "Radio mode, vector"
vector 38 FanetGpsrGrayholeSecure.grayhole[13].wlan[0].radio radioMode:vector ETV
attr interpolationmode sample-hold
attr source radioModeChanged
attr title "Radio mode, vector"
vector 39 FanetGpsrGrayholeSecure.grayhole[14].wlan[0].radio radioMode:vector ETV
attr interpolationmode sample-hold
attr source radioModeChanged
attr title "Radio mode, vector"
vector 40 FanetGpsrGrayholeSecure.grayhole[15].wlan[0].radio radioMode:vector ETV
attr interpolationmode sample-hold
attr source radioModeChanged
attr title "Radio mode, vector"
vector 41 FanetGpsrGrayholeSecure.grayhole[16].wlan[0].radio radioMode:vector ETV
attr interpolationmode sample-hold
attr source radioModeChanged
attr title "Radio mode, vector"
vector 42 FanetGpsrGrayholeSecure.grayhole[17].wlan[0].radio radioMode:vector ETV
attr interpolationmode sample-hold
attr source radioModeChanged
attr title "Radio mode, vector"
vector 43 FanetGpsrGrayholeSecure.grayhole[18].wlan[0].radio radioMode:vector ETV
attr interpolationmode sample-hold
attr source radioModeChanged
attr title "Radio mode, vector"
vector 44 FanetGpsrGrayholeSecure.grayhole[19].wlan[0].radio radioMode:vector ETV
attr interpolationmode sample-hold
attr source radioModeChanged
attr title "Radio mode, vector"
vector 45 FanetGpsrGrayholeSecure.grayhole[20].wlan[0].radio radioMode:vector ETV
attr interpolationmode sample-hold
attr source radioModeChanged
attr title "Radio mode, vector"
vector 46 FanetGpsrGrayholeSecure.grayhole[21].wlan[0].radio radioMode:vector ETV
attr interpolationmode sample-hold
attr source radioModeChanged
attr title "Radio mode, vector"
vector 47 FanetGpsrGrayholeSecure.grayhole[22].wlan[0].radio radioMode:vector ETV
attr interpolationmode sample-hold
attr source radioModeChanged
attr title "Radio mode, vector"
vector 48 FanetGpsrGrayholeSecure.grayhole[23].wlan[0].radio radioMode:vector ETV
attr interpolationmode sample-hold
attr source radioModeChanged
attr title "Radio mode, vector"
vector 49 FanetGpsrGrayholeSecure.grayhole[24].wlan[0].radio radioMode:vector ETV
attr interpolationmode sample-hold
attr source radioModeChanged
attr title "Radio mode, vector"
vector 50 FanetGpsrGrayholeSecure.host[0].wlan[0].radio receptionState:vector ETV
attr interpolationmode sample-hold
attr source receptionStateChanged
attr title "Radio reception state, vector"
vector 51 FanetGpsrGrayholeSecure.host[0].wlan[0].radio transmissionState:vector ETV
attr interpolationmode sample-hold
attr source transmissionStateChanged
attr title "Radio transmission state, vector"
vector 52 FanetGpsrGrayholeSecure.host[1].wlan[0].radio receptionState:vector ETV
attr interpolationmode sample-hold
attr source receptionStateChanged
attr title "Radio reception state, vector"
vector 53 FanetGpsrGrayholeSecure.host[1].wlan[0].radio transmissionState:vector ETV
attr interpolationmode sample-hold
attr source transmissionStateChanged
attr title "Radio transmission state, vector"
vector 54 FanetGpsrGrayholeSecure.host[2].wlan[0].radio receptionState:vector ETV
attr interpolationmode sample-hold
attr source receptionStateChanged
attr title "Radio reception state, vector"
vector 55 FanetGpsrGrayholeSecure.host[2].wlan[0].radio transmissionState:vector ETV
attr interpolationmode sample-hold
attr source transmissionStateChanged
attr title "Radio transmission state, vector"
vector 56 FanetGpsrGrayholeSecure.host[3].wlan[0].radio receptionState:vector ETV
attr interpolationmode sample-hold
attr source receptionStateChanged
attr title "Radio reception state, vector"
vector 57 FanetGpsrGrayholeSecure.host[3].wlan[0].radio transmissionState:vector ETV
attr interpolationmode sample-hold
attr source transmissionStateChanged
attr title "Radio transmission state, vector"
vector 58 FanetGpsrGrayholeSecure.host[4].wlan[0].radio receptionState:vector ETV
attr interpolationmode sample-hold
attr source receptionStateChanged
attr title "Radio reception state, vector"
vector 59 FanetGpsrGrayholeSecure.host[4].wlan[0].radio transmissionState:vector ETV
attr interpolationmode sample-hold
attr source transmissionStateChanged
attr title "Radio transmission state, vector"
vector 60 FanetGpsrGrayholeSecure.host[5].wlan[0].radio receptionState:vector ETV
attr interpolationmode sample-hold
attr source receptionStateChanged
attr title "Radio reception state, vector"
vector 61 FanetGpsrGrayholeSecure.host[5].wlan[0].radio transmissionState:vector ETV
attr interpolationmode sample-hold
attr source transmissionStateChanged
attr title "Radio transmission state, vector"
vector 62 FanetGpsrGrayholeSecure.host[6].wlan[0].radio receptionState:vector ETV
attr interpolationmode sample-hold
attr source receptionStateChanged
attr title "Radio reception state, vector"
vector 63 FanetGpsrGrayholeSecure.host[6].wlan[0].radio transmissionState:vector ETV
attr interpolationmode sample-hold
attr source transmissionStateChanged
attr title "Radio transmission state, vector"
vector 64 FanetGpsrGrayholeSecure.host[7].wlan[0].radio receptionState:vector ETV
attr interpolationmode sample-hold
attr source receptionStateChanged
attr title "Radio reception state, vector"
vector 65 FanetGpsrGrayholeSecure.host[7].wlan[0].radio transmissionState:vector ETV
attr interpolationmode sample-hold
attr source transmissionStateChanged
attr title "Radio transmission state, vector"
vector 66 FanetGpsrGrayholeSecure.host[8].wlan[0].radio receptionState:vector ETV
attr interpolationmode sample-hold
attr source receptionStateChanged
attr title "Radio reception state, vector"
vector 67 FanetGpsrGrayholeSecure.host[8].wlan[0].radio transmissionState:vector ETV
attr interpolationmode sample-hold
attr source transmissionStateChanged
attr title "Radio transmission state, vector"
vector 68 FanetGpsrGrayholeSecure.host[9].wlan[0].radio receptionState:vector ETV
attr interpolationmode sample-hold
attr source receptionStateChanged
attr title "Radio reception state, vector"
vector 69 FanetGpsrGrayholeSecure.host[9].wlan[0].radio transmissionState:vector ETV
attr interpolationmode sample-hold
attr source transmissionStateChanged
attr title "Radio transmission state, vector"
vector 70 FanetGpsrGrayholeSecure.host[10].wlan[0].radio receptionState:vector ETV
attr interpolationmode sample-hold
attr source receptionStateChanged
attr title "Radio reception state, vector"
vector 71 FanetGpsrGrayholeSecure.host[10].wlan[0].radio transmissionState:vector ETV
attr interpolationmode sample-hold
attr source transmissionStateChanged
attr title "Radio transmission state, vector"
vector 72 FanetGpsrGrayholeSecure.host[11].wlan[0].radio receptionState:vector ETV
attr interpolationmode sample-hold
attr source receptionStateChanged
attr title "Radio reception state, vector"
vector 73 FanetGpsrGrayholeSecure.host[11].wlan[0].radio transmissionState:vector ETV
attr interpolationmode sample-hold
attr source transmissionStateChanged
attr title "Radio transmission state, vector"
vector 74 FanetGpsrGrayholeSecure.host[12].wlan[0].radio receptionState:vector ETV
attr interpolationmode sample-hold
attr source receptionStateChanged
attr title "Radio reception state, vector"
vector 75 FanetGpsrGrayholeSecure.host[12].wlan[0].radio transmissionState:vector ETV
attr interpolationmode sample-hold
attr source transmissionStateChanged
attr title "Radio transmission state, vector"
vector 76 FanetGpsrGrayholeSecure.host[13].wlan[0].radio receptionState:vector ETV
attr interpolationmode sample-hold
attr source receptionStateChanged
attr title "Radio reception state, vector"
vector 77 FanetGpsrGrayholeSecure.host[13].wlan[0].radio transmissionState:vector ETV
attr interpolationmode sample-hold
attr source transmissionStateChanged
attr title "Radio transmission state, vector"
vector 78 FanetGpsrGrayholeSecure.host[14].wlan[0].radio receptionState:vector ETV
attr interpolationmode sample-hold
attr source receptionStateChanged
attr title "Radio reception state, vector"
vector 79 FanetGpsrGrayholeSecure.host[14].wlan[0].radio transmissionState:vector ETV
attr interpolationmode sample-hold
attr source transmissionStateChanged
attr title "Radio transmission state, vector"
vector 80 FanetGpsrGrayholeSecure.host[15].wlan[0].radio receptionState:vector ETV
attr interpolationmode sample-hold
attr source receptionStateChanged
attr title "Radio reception state, vector"
vector 81 FanetGpsrGrayholeSecure.host[15].wlan[0].radio transmissionState:vector ETV
attr interpolationmode sample-hold
attr source transmissionStateChanged
attr title "Radio transmission state, vector"
vector 82 FanetGpsrGrayholeSecure.host[16].wlan[0].radio receptionState:vector ETV
attr interpolationmode sample-hold
attr source receptionStateChanged
attr title "Radio reception state, vector"
vector 83 FanetGpsrGrayholeSecure.host[16].wlan[0].radio transmissionState:vector ETV
attr interpolationmode sample-hold
attr source transmissionStateChanged
attr title "Radio transmission state, vector"
vector 84 FanetGpsrGrayholeSecure.host[17].wlan[0].radio receptionState:vector ETV
attr interpolationmode sample-hold
attr source receptionStateChanged
attr title "Radio reception state, vector"
vector 85 FanetGpsrGrayholeSecure.host[17].wlan[0].radio transmissionState:vector ETV
attr interpolationmode sample-hold
attr source transmissionStateChanged
attr title "Radio transmission state, vector"
vector 86 FanetGpsrGrayholeSecure.host[18].wlan[0].radio receptionState:vector ETV
attr interpolationmode sample-hold
attr source receptionStateChanged
attr title "Radio reception state, vector"
vector 87 FanetGpsrGrayholeSecure.host[18].wlan[0].radio transmissionState:vector ETV
attr interpolationmode sample-hold
attr source transmissionStateChanged
attr title "Radio transmission state, vector"
vector 88 FanetGpsrGrayholeSecure.host[19].wlan[0].radio receptionState:vector ETV
attr interpolationmode sample-hold
attr source receptionStateChanged
attr title "Radio reception state, vector"
vector 89 FanetGpsrGrayholeSecure.host[19].wlan[0].radio transmissionState:vector ETV
attr interpolationmode sample-hold
attr source transmissionStateChanged
attr title "Radio transmission state, vector"
vector 90 FanetGpsrGrayholeSecure.host[20].wlan[0].radio receptionState:vector ETV
attr interpolationmode sample-hold
attr source receptionStateChanged
attr title "Radio reception state, vector"
vector 91 FanetGpsrGrayholeSecure.host[20].wlan[0].radio transmissionState:vector ETV
attr interpolationmode sample-hold
attr source transmissionStateChanged
attr title "Radio transmission state, vector"
vector 92 FanetGpsrGrayholeSecure.host[21].wlan[0].radio receptionState:vector ETV
attr interpolationmode sample-hold
attr source receptionStateChanged
attr title "Radio reception state, vector"
vector 93 FanetGpsrGrayholeSecure.host[21].wlan[0].radio transmissionState:vector ETV
attr interpolationmode sample-hold
attr source transmissionStateChanged
attr title "Radio transmission state, vector"
vector 94 FanetGpsrGrayholeSecure.host[22].wlan[0].radio receptionState:vector ETV
attr interpolationmode sample-hold
attr source receptionStateChanged
attr title "Radio reception state, vector"
vector 95 FanetGpsrGrayholeSecure.host[22].wlan[0].radio transmissionState:vector ETV
attr interpolationmode sample-hold
attr source transmissionStateChanged
attr title "Radio transmission state, vector"
vector 96 FanetGpsrGrayholeSecure.host[23].wlan[0].radio receptionState:vector ETV
attr interpolationmode sample-hold
attr source receptionStateChanged
attr title "Radio reception state, vector"
vector 97 FanetGpsrGrayholeSecure.host[23].wlan[0].radio transmissionState:vector ETV
attr interpolationmode sample-hold
attr source transmissionStateChanged
attr title "Radio transmission state, vector"
vector 98 FanetGpsrGrayholeSecure.host[24].wlan[0].radio receptionState:vector ETV
attr interpolationmode sample-hold
attr source receptionStateChanged
attr title "Radio reception state, vector"
vector 99 FanetGpsrGrayholeSecure.host[24].wlan[0].radio transmissionState:vector ETV
attr interpolationmode sample-hold
attr source transmissionStateChanged
attr title "Radio transmission state, vector"
vector 100 FanetGpsrGrayholeSecure.grayhole[0].wlan[0].radio receptionState:vector ETV
attr interpolationmode sample-hold
attr source receptionStateChanged
attr title "Radio reception state, vector"
vector 101 FanetGpsrGrayholeSecure.grayhole[0].wlan[0].radio transmissionState:vector ETV
attr interpolationmode sample-hold
attr source transmissionStateChanged
attr title "Radio transmission state, vector"
vector 102 FanetGpsrGrayholeSecure.grayhole[1].wlan[0].radio receptionState:vector ETV
attr interpolationmode sample-hold
attr source receptionStateChanged
attr title "Radio reception state, vector"
vector 103 FanetGpsrGrayholeSecure.grayhole[1].wlan[0].radio transmissionState:vector ETV
attr interpolationmode sample-hold
attr source transmissionStateChanged
attr title "Radio transmission state, vector"
vector 104 FanetGpsrGrayholeSecure.grayhole[2].wlan[0].radio receptionState:vector ETV
attr interpolationmode sample-hold
attr source receptionStateChanged
attr title "Radio reception state, vector"
vector 105 FanetGpsrGrayholeSecure.grayhole[2].wlan[0].radio transmissionState:vector ETV
attr interpolationmode sample-hold
attr source transmissionStateChanged
attr title "Radio transmission state, vector"
vector 106 FanetGpsrGrayholeSecure.grayhole[3].wlan[0].radio receptionState:vector ETV
attr interpolationmode sample-hold
attr source receptionStateChanged
attr title "Radio reception state, vector"
vector 107 FanetGpsrGrayholeSecure.grayhole[3].wlan[0].radio transmissionState:vector ETV
attr interpolationmode sample-hold
attr source transmissionStateChanged
attr title "Radio transmission state, vector"
vector 108 FanetGpsrGrayholeSecure.grayhole[4].wlan[0].radio receptionState:vector ETV
attr interpolationmode sample-hold
attr source receptionStateChanged
attr title "Radio reception state, vector"
vector 109 FanetGpsrGrayholeSecure.grayhole[4].wlan[0].radio transmissionState:vector ETV
attr interpolationmode sample-hold
attr source transmissionStateChanged
attr title "Radio transmission state, vector"
vector 110 FanetGpsrGrayholeSecure.grayhole[5].wlan[0].radio receptionState:vector ETV
attr interpolationmode sample-hold
attr source receptionStateChanged
attr title "Radio reception state, vector"
vector 111 FanetGpsrGrayholeSecure.grayhole[5].wlan[0].radio transmissionState:vector ETV
attr interpolationmode sample-hold
attr source transmissionStateChanged
attr title "Radio transmission state, vector"
vector 112 FanetGpsrGrayholeSecure.grayhole[6].wlan[0].radio receptionState:vector ETV
attr interpolationmode sample-hold
attr source receptionStateChanged
attr title "Radio reception state, vector"
vector 113 FanetGpsrGrayholeSecure.grayhole[6].wlan[0].radio transmissionState:vector ETV
attr interpolationmode sample-hold
attr source transmissionStateChanged
attr title "Radio transmission state, vector"
vector 114 FanetGpsrGrayholeSecure.grayhole[7].wlan[0].radio receptionState:vector ETV
attr interpolationmode sample-hold
attr source receptionStateChanged
attr title "Radio reception state, vector"
vector 115 FanetGpsrGrayholeSecure.grayhole[7].wlan[0].radio transmissionState:vector ETV
attr interpolationmode sample-hold
attr source transmissionStateChanged
attr title "Radio transmission state, vector"
vector 116 FanetGpsrGrayholeSecure.grayhole[8].wlan[0].radio receptionState:vector ETV
attr interpolationmode sample-hold
attr source receptionStateChanged
attr title "Radio reception state, vector"
vector 117 FanetGpsrGrayholeSecure.grayhole[8].wlan[0].radio transmissionState:vector ETV
attr interpolationmode sample-hold
attr source transmissionStateChanged
attr title "Radio transmission state, vector"
vector 118 FanetGpsrGrayholeSecure.grayhole[9].wlan[0].radio receptionState:vector ETV
attr interpolationmode sample-hold
attr source receptionStateChanged
attr title "Radio reception state, vector"
vector 119 FanetGpsrGrayholeSecure.grayhole[9].wlan[0].radio transmissionState:vector ETV
attr interpolationmode sample-hold
attr source transmissionStateChanged
attr title "Radio transmission state, vector"
vector 120 FanetGpsrGrayholeSecure.grayhole[10].wlan[0].radio receptionState:vector ETV
attr interpolationmode sample-hold
attr source receptionStateChanged
attr title "Radio reception state, vector"
vector 121 FanetGpsrGrayholeSecure.grayhole[10].wlan[0].radio transmissionState:vector ETV
attr interpolationmode sample-hold
attr source transmissionStateChanged
attr title "Radio transmission state, vector"
vector 122 FanetGpsrGrayholeSecure.grayhole[11].wlan[0].radio receptionState:vector ETV
attr interpolationmode sample-hold
attr source receptionStateChanged
attr title "Radio reception state, vector"
vector 123 FanetGpsrGrayholeSecure.grayhole[11].wlan[0].radio transmissionState:vector ETV
attr interpolationmode sample-hold
attr source transmissionStateChanged
attr title "Radio transmission state, vector"
vector 124 FanetGpsrGrayholeSecure.grayhole[12].wlan[0].radio receptionState:vector ETV
attr interpolationmode sample-hold
attr source receptionStateChanged
attr title "Radio reception state, vector"
vector 125 FanetGpsrGrayholeSecure.grayhole[12].wlan[0].radio transmissionState:vector ETV
attr interpolationmode sample-hold
attr source transmissionStateChanged
attr title "Radio transmission state, vector"
vector 126 FanetGpsrGrayholeSecure.grayhole[13].wlan[0].radio receptionState:vector ETV
attr interpolationmode sample-hold
attr source receptionStateChanged
attr title "Radio reception state, vector"
vector 127 FanetGpsrGrayholeSecure.grayhole[13].wlan[0].radio transmissionState:vector ETV
attr interpolationmode sample-hold
attr source transmissionStateChanged
attr title "Radio transmission state, vector"
vector 128 FanetGpsrGrayholeSecure.grayhole[14].wlan[0].radio receptionState:vector ETV
attr interpolationmode sample-hold
attr source receptionStateChanged
attr title "Radio reception state, vector"
vector 129 FanetGpsrGrayholeSecure.grayhole[14].wlan[0].radio transmissionState:vector ETV
attr interpolationmode sample-hold
attr source transmissionStateChanged
attr title "Radio transmission state, vector"
vector 130 FanetGpsrGrayholeSecure.grayhole[15].wlan[0].radio receptionState:vector ETV
attr interpolationmode sample-hold
attr source receptionStateChanged
attr title "Radio reception state, vector"
vector 131 FanetGpsrGrayholeSecure.grayhole[15].wlan[0].radio transmissionState:vector ETV
attr interpolationmode sample-hold
attr source transmissionStateChanged
attr title "Radio transmission state, vector"
vector 132 FanetGpsrGrayholeSecure.grayhole[16].wlan[0].radio receptionState:vector ETV
attr interpolationmode sample-hold
attr source receptionStateChanged
attr title "Radio reception state, vector"
vector 133 FanetGpsrGrayholeSecure.grayhole[16].wlan[0].radio transmissionState:vector ETV
attr interpolationmode sample-hold
attr source transmissionStateChanged
attr title "Radio transmission state, vector"
vector 134 FanetGpsrGrayholeSecure.grayhole[17].wlan[0].radio receptionState:vector ETV
attr interpolationmode sample-hold
attr source receptionStateChanged
attr title "Radio reception state, vector"
vector 135 FanetGpsrGrayholeSecure.grayhole[17].wlan[0].radio transmissionState:vector ETV
attr interpolationmode sample-hold
attr source transmissionStateChanged
attr title "Radio transmission state, vector"
vector 136 FanetGpsrGrayholeSecure.grayhole[18].wlan[0].radio receptionState:vector ETV
attr interpolationmode sample-hold
attr source receptionStateChanged
attr title "Radio reception state, vector"
vector 137 FanetGpsrGrayholeSecure.grayhole[18].wlan[0].radio transmissionState:vector ETV
attr interpolationmode sample-hold
attr source transmissionStateChanged
attr title "Radio transmission state, vector"
vector 138 FanetGpsrGrayholeSecure.grayhole[19].wlan[0].radio receptionState:vector ETV
attr interpolationmode sample-hold
attr source receptionStateChanged
attr title "Radio reception state, vector"
vector 139 FanetGpsrGrayholeSecure.grayhole[19].wlan[0].radio transmissionState:vector ETV
attr interpolationmode sample-hold
attr source transmissionStateChanged
attr title "Radio transmission state, vector"
vector 140 FanetGpsrGrayholeSecure.grayhole[20].wlan[0].radio receptionState:vector ETV
attr interpolationmode sample-hold
attr source receptionStateChanged
attr title "Radio reception state, vector"
vector 141 FanetGpsrGrayholeSecure.grayhole[20].wlan[0].radio transmissionState:vector ETV
attr interpolationmode sample-hold
attr source transmissionStateChanged
attr title "Radio transmission state, vector"
vector 142 FanetGpsrGrayholeSecure.grayhole[21].wlan[0].radio receptionState:vector ETV
attr interpolationmode sample-hold
attr source receptionStateChanged
attr title "Radio reception state, vector"
vector 143 FanetGpsrGrayholeSecure.grayhole[21].wlan[0].radio transmissionState:vector ETV
attr interpolationmode sample-hold
attr source transmissionStateChanged
attr title "Radio transmission state, vector"
vector 144 FanetGpsrGrayholeSecure.grayhole[22].wlan[0].radio receptionState:vector ETV
attr interpolationmode sample-hold
attr source receptionStateChanged
attr title "Radio reception state, vector"
vector 145 FanetGpsrGrayholeSecure.grayhole[22].wlan[0].radio transmissionState:vector ETV
attr interpolationmode sample-hold
attr source transmissionStateChanged
attr title "Radio transmission state, vector"
vector 146 FanetGpsrGrayholeSecure.grayhole[23].wlan[0].radio receptionState:vector ETV
attr interpolationmode sample-hold
attr source receptionStateChanged
attr title "Radio reception state, vector"
vector 147 FanetGpsrGrayholeSecure.grayhole[23].wlan[0].radio transmissionState:vector ETV
attr interpolationmode sample-hold
attr source transmissionStateChanged
attr title "Radio transmission state, vector"
vector 148 FanetGpsrGrayholeSecure.grayhole[24].wlan[0].radio receptionState:vector ETV
attr interpolationmode sample-hold
attr source receptionStateChanged
attr title "Radio reception state, vector"
vector 149 FanetGpsrGrayholeSecure.grayhole[24].wlan[0].radio transmissionState:vector ETV
attr interpolationmode sample-hold
attr source transmissionStateChanged
attr title "Radio transmission state, vector"
vector 150 FanetGpsrGrayholeSecure.host[7].wlan[0].mac rcvdPkFromHl:vector(packetBytes) ETV
attr interpolationmode none
attr source packetReceivedFromUpper
attr title "packets received from higher layer, vector(packetBytes)"
vector 151 FanetGpsrGrayholeSecure.host[7].wlan[0].mac.queue packetPushed:vector(packetBytes) ETV
attr interpolationmode none
attr title "packet pushed, vector(packetBytes)"
vector 152 FanetGpsrGrayholeSecure.host[7].wlan[0].mac.queue queueLength:vector ETV
attr interpolationmode sample-hold
attr source "count(packetPushed) - count(packetPopped) - count(packetRemoved) - count(packetDropped)"
attr title "queue length, vector"
vector 153 FanetGpsrGrayholeSecure.host[7].wlan[0].mac.queue packetPopped:vector(packetBytes) ETV
attr interpolationmode none
attr title "packet popped, vector(packetBytes)"
vector 154 FanetGpsrGrayholeSecure.host[7].wlan[0].mac.queue queueingTime:vector ETV
attr interpolationmode none
attr source queueingTime(packetPopped)
attr title "queueing times, vector"
attr unit s
vector 155 FanetGpsrGrayholeSecure.host[7].wlan[0].mac sentDownPk:vector(packetBytes) ETV
attr interpolationmode none
attr source packetSentToLower
attr title "packets sent to lower layer, vector(packetBytes)"
vector 156 FanetGpsrGrayholeSecure.host[11].wlan[0].mac rcvdPkFromLl:vector(packetBytes) ETV
attr interpolationmode none
attr source packetReceivedFromLower
attr title "packets received from lower layer, vector(packetBytes)"
vector 157 FanetGpsrGrayholeSecure.host[11].wlan[0].mac passedUpPk:vector(packetBytes) ETV
attr interpolationmode none
attr source packetSentToUpper
attr title "packets passed to higher layer, vector(packetBytes)"
vector 158 FanetGpsrGrayholeSecure.grayhole[12].wlan[0].mac rcvdPkFromLl:vector(packetBytes) ETV
attr interpolationmode none
attr source packetReceivedFromLower
attr title "packets received from lower layer, vector(packetBytes)"
vector 159 FanetGpsrGrayholeSecure.grayhole[12].wlan[0].mac passedUpPk:vector(packetBytes) ETV
attr interpolationmode none
attr source packetSentToUpper
attr title "packets passed to higher layer, vector(packetBytes)"
vector 160 FanetGpsrGrayholeSecure.grayhole[10].wlan[0].mac rcvdPkFromLl:vector(packetBytes) ETV
attr interpolationmode none
attr source packetReceivedFromLower
attr title "packets received from lower layer, vector(packetBytes)"
vector 161 FanetGpsrGrayholeSecure.grayhole[10].wlan[0].mac passedUpPk:vector(packetBytes) ETV
attr interpolationmode none
attr source packetSentToUpper
attr title "packets passed to higher layer, vector(packetBytes)"
vector 162 FanetGpsrGrayholeSecure.grayhole[9].wlan[0].mac rcvdPkFromLl:vector(packetBytes) ETV
attr interpolationmode none
attr source packetReceivedFromLower
attr title "packets received from lower layer, vector(packetBytes)"
vector 163 FanetGpsrGrayholeSecure.grayhole[9].wlan[0].mac passedUpPk:vector(packetBytes) ETV
attr interpolationmode none
attr source packetSentToUpper
attr title "packets passed to higher layer, vector(packetBytes)"
vector 164 FanetGpsrGrayholeSecure.host[0].wlan[0].mac rcvdPkFromLl:vector(packetBytes) ETV
attr interpolationmode none
attr source packetReceivedFromLower
attr title "packets received from lower layer, vector(packetBytes)"
vector 165 FanetGpsrGrayholeSecure.host[0].wlan[0].mac passedUpPk:vector(packetBytes) ETV
attr interpolationmode none
attr source packetSentToUpper
attr title "packets passed to higher layer, vector(packetBytes)"
vector 166 FanetGpsrGrayholeSecure.host[3].wlan[0].mac rcvdPkFromLl:vector(packetBytes) ETV
attr interpolationmode none
attr source packetReceivedFromLower
attr title "packets received from lower layer, vector(packetBytes)"
vector 167 FanetGpsrGrayholeSecure.host[3].wlan[0].mac passedUpPk:vector(packetBytes) ETV
attr interpolationmode none
attr source packetSentToUpper
attr title "packets passed to higher layer, vector(packetBytes)"
vector 168 FanetGpsrGrayholeSecure.host[6].wlan[0].mac rcvdPkFromLl:vector(packetBytes) ETV
attr interpolationmode none
attr source packetReceivedFromLower
attr title "packets received from lower layer, vector(packetBytes)"
vector 169 FanetGpsrGrayholeSecure.host[6].wlan[0].mac passedUpPk:vector(packetBytes) ETV
attr interpolationmode none
attr source packetSentToUpper
attr title "packets passed to higher layer, vector(packetBytes)"
vector 170 FanetGpsrGrayholeSecure.grayhole[16].wlan[0].mac rcvdPkFromLl:vector(packetBytes) ETV
attr interpolationmode none
attr source packetReceivedFromLower
attr title "packets received from lower layer, vector(packetBytes)"
vector 171 FanetGpsrGrayholeSecure.grayhole[16].wlan[0].mac passedUpPk:vector(packetBytes) ETV
attr interpolationmode none
attr source packetSentToUpper
attr title "packets passed to higher layer, vector(packetBytes)"
vector 172 FanetGpsrGrayholeSecure.host[16].wlan[0].mac rcvdPkFromLl:vector(packetBytes) ETV
attr interpolationmode none
attr source packetReceivedFromLower
attr title "packets received from lower layer, vector(packetBytes)"
vector 173 FanetGpsrGrayholeSecure.host[16].wlan[0].mac passedUpPk:vector(packetBytes) ETV
attr interpolationmode none
attr source packetSentToUpper
attr title "packets passed to higher layer, vector(packetBytes)"
vector 174 FanetGpsrGrayholeSecure.host[12].wlan[0].mac rcvdPkFromHl:vector(packetBytes) ETV
attr interpolationmode none
attr source packetReceivedFromUpper
attr title "packets received from higher layer, vector(packetBytes)"
vector 175 FanetGpsrGrayholeSecure.host[12].wlan[0].mac.queue packetPushed:vector(packetBytes) ETV
attr interpolationmode none
attr title "packet pushed, vector(packetBytes)"
vector 176 FanetGpsrGrayholeSecure.host[12].wlan[0].mac.queue queueLength:vector ETV
attr interpolationmode sample-hold
attr source "count(packetPushed) - count(packetPopped) - count(packetRemoved) - count(packetDropped)"
attr title "queue length, vector"
vector 177 FanetGpsrGrayholeSecure.host[12].wlan[0].mac.queue packetPopped:vector(packetBytes) ETV
attr interpolationmode none
attr title "packet popped, vector(packetBytes)"
vector 178 FanetGpsrGrayholeSecure.host[12].wlan[0].mac.queue queueingTime:vector ETV
attr interpolationmode none
attr source queueingTime(packetPopped)
attr title "queueing times, vector"
attr unit s
vector 179 FanetGpsrGrayholeSecure.host[12].wlan[0].mac sentDownPk:vector(packetBytes) ETV
attr interpolationmode none
attr source packetSentToLower
attr title "packets sent to lower layer, vector(packetBytes)"
vector 180 FanetGpsrGrayholeSecure.grayhole[7].wlan[0].mac rcvdPkFromLl:vector(packetBytes) ETV
attr interpolationmode none
attr source packetReceivedFromLower
attr title "packets received from lower layer, vector(packetBytes)"
vector 181 FanetGpsrGrayholeSecure.grayhole[7].wlan[0].mac passedUpPk:vector(packetBytes) ETV
attr interpolationmode none
attr source packetSentToUpper
attr title "packets passed to higher layer, vector(packetBytes)"
vector 182 FanetGpsrGrayholeSecure.grayhole[24].wlan[0].mac rcvdPkFromLl:vector(packetBytes) ETV
attr interpolationmode none
attr source packetReceivedFromLower
attr title "packets received from lower layer, vector(packetBytes)"
vector 183 FanetGpsrGrayholeSecure.grayhole[24].wlan[0].mac passedUpPk:vector(packetBytes) ETV
attr interpolationmode none
attr source packetSentToUpper
attr title "packets passed to higher layer, vector(packetBytes)"
vector 184 FanetGpsrGrayholeSecure.host[17].wlan[0].mac rcvdPkFromLl:vector(packetBytes) ETV
attr interpolationmode none
attr source packetReceivedFromLower
attr title "packets received from lower layer, vector(packetBytes)"
vector 185 FanetGpsrGrayholeSecure.host[17].wlan[0].mac passedUpPk:vector(packetBytes) ETV
attr interpolationmode none
attr source packetSentToUpper
attr title "packets passed to higher layer, vector(packetBytes)"
vector 186 FanetGpsrGrayholeSecure.grayhole[21].wlan[0].mac rcvdPkFromHl:vector(packetBytes) ETV
attr interpolationmode none
attr source packetReceivedFromUpper
attr title "packets received from higher layer, vector(packetBytes)"
vector 187 FanetGpsrGrayholeSecure.grayhole[21].wlan[0].mac.queue packetPushed:vector(packetBytes) ETV
attr interpolationmode none
attr title "packet pushed, vector(packetBytes)"
vector 188 FanetGpsrGrayholeSecure.grayhole[21].wlan[0].mac.queue queueLength:vector ETV
attr interpolationmode sample-hold
attr source "count(packetPushed) - count(packetPopped) - count(packetRemoved) - count(packetDropped)"
attr title "queue length, vector"
vector 189 FanetGpsrGrayholeSecure.grayhole[21].wlan[0].mac.queue packetPopped:vector(packetBytes) ETV
attr interpolationmode none
attr title "packet popped, vector(packetBytes)"
vector 190 FanetGpsrGrayholeSecure.grayhole[21].wlan[0].mac.queue queueingTime:vector ETV
attr interpolationmode none
attr source queueingTime(packetPopped)
attr title "queueing times, vector"
attr unit s
vector 191 FanetGpsrGrayholeSecure.grayhole[21].wlan[0].mac sentDownPk:vector(packetBytes) ETV
attr interpolationmode none
attr source packetSentToLower
attr title "packets sent to lower layer, vector(packetBytes)"
vector 192 FanetGpsrGrayholeSecure.grayhole[17].wlan[0].mac rcvdPkFromLl:vector(packetBytes) ETV
attr interpolationmode none
attr source packetReceivedFromLower
attr title "packets received from lower layer, vector(packetBytes)"
vector 193 FanetGpsrGrayholeSecure.grayhole[17].wlan[0].mac passedUpPk:vector(packetBytes) ETV
attr interpolationmode none
attr source packetSentToUpper
attr title "packets passed to higher layer, vector(packetBytes)"
vector 194 FanetGpsrGrayholeSecure.host[1].wlan[0].mac rcvdPkFromLl:vector(packetBytes) ETV
attr interpolationmode none
attr source packetReceivedFromLower
attr title "packets received from lower layer, vector(packetBytes)"
vector 195 FanetGpsrGrayholeSecure.host[1].wlan[0].mac passedUpPk:vector(packetBytes) ETV
attr interpolationmode none
attr source packetSentToUpper
attr title "packets passed to higher layer, vector(packetBytes)"
vector 196 FanetGpsrGrayholeSecure.host[23].wlan[0].mac rcvdPkFromLl:vector(packetBytes) ETV
attr interpolationmode none
attr source packetReceivedFromLower
attr title "packets received from lower layer, vector(packetBytes)"
vector 197 FanetGpsrGrayholeSecure.host[23].wlan[0].mac passedUpPk:vector(packetBytes) ETV
attr interpolationmode none
attr source packetSentToUpper
attr title "packets passed to higher layer, vector(packetBytes)"
vector 198 FanetGpsrGrayholeSecure.host[14].wlan[0].mac rcvdPkFromLl:vector(packetBytes) ETV
attr interpolationmode none
attr source packetReceivedFromLower
attr title "packets received from lower layer, vector(packetBytes)"
vector 199 FanetGpsrGrayholeSecure.host[14].wlan[0].mac passedUpPk:vector(packetBytes) ETV
attr interpolationmode none
attr source packetSentToUpper
attr title "packets passed to higher layer, vector(packetBytes)"
vector 200 FanetGpsrGrayholeSecure.grayhole[5].wlan[0].mac rcvdPkFromLl:vector(packetBytes) ETV
attr interpolationmode none
attr source packetReceivedFromLower
attr title "packets received from lower layer, vector(packetBytes)"
vector 201 FanetGpsrGrayholeSecure.grayhole[5].wlan[0].mac passedUpPk:vector(packetBytes) ETV
attr interpolationmode none
attr source packetSentToUpper
attr title "packets passed to higher layer, vector(packetBytes)"
vector 202 FanetGpsrGrayholeSecure.grayhole[20].wlan[0].mac rcvdPkFromHl:vector(packetBytes) ETV
attr interpolationmode none
attr source packetReceivedFromUpper
attr title "packets received from higher layer, vector(packetBytes)"
vector 203 FanetGpsrGrayholeSecure.grayhole[20].wlan[0].mac.queue packetPushed:vector(packetBytes) ETV
attr interpolationmode none
attr title "packet pushed, vector(packetBytes)"
vector 204 FanetGpsrGrayholeSecure.grayhole[20].wlan[0].mac.queue queueLength:vector ETV
attr interpolationmode sample-hold
attr source "count(packetPushed) - count(packetPopped) - count(packetRemoved) - count(packetDropped)"
attr title "queue length, vector"
vector 205 FanetGpsrGrayholeSecure.grayhole[20].wlan[0].mac.queue packetPopped:vector(packetBytes) ETV
attr interpolationmode none
attr title "packet popped, vector(packetBytes)"
vector 206 FanetGpsrGrayholeSecure.grayhole[20].wlan[0].mac.queue queueingTime:vector ETV
attr interpolationmode none
attr source queueingTime(packetPopped)
attr title "queueing times, vector"
attr unit s
vector 207 FanetGpsrGrayholeSecure.grayhole[20].wlan[0].mac sentDownPk:vector(packetBytes) ETV
attr interpolationmode none
attr source packetSentToLower
attr title "packets sent to lower layer, vector(packetBytes)"
vector 208 FanetGpsrGrayholeSecure.grayhole[3].wlan[0].mac rcvdPkFromLl:vector(packetBytes) ETV
attr interpolationmode none
attr source packetReceivedFromLower
attr title "packets received from lower layer, vector(packetBytes)"
vector 209 FanetGpsrGrayholeSecure.grayhole[3].wlan[0].mac passedUpPk:vector(packetBytes) ETV
attr interpolationmode none
attr source packetSentToUpper
attr title "packets passed to higher layer, vector(packetBytes)"
vector 210 FanetGpsrGrayholeSecure.host[4].wlan[0].mac rcvdPkFromLl:vector(packetBytes) ETV
attr interpolationmode none
attr source packetReceivedFromLower
attr title "packets received from lower layer, vector(packetBytes)"
vector 211 FanetGpsrGrayholeSecure.host[4].wlan[0].mac passedUpPk:vector(packetBytes) ETV
attr interpolationmode none
attr source packetSentToUpper
attr title "packets passed to higher layer, vector(packetBytes)"
vector 212 FanetGpsrGrayholeSecure.host[9].wlan[0].mac rcvdPkFromLl:vector(packetBytes) ETV
attr interpolationmode none
attr source packetReceivedFromLower
attr title "packets received from lower layer, vector(packetBytes)"
vector 213 FanetGpsrGrayholeSecure.host[9].wlan[0].mac passedUpPk:vector(packetBytes) ETV
attr interpolationmode none
attr source packetSentToUpper
attr title "packets passed to higher layer, vector(packetBytes)"
vector 214 FanetGpsrGrayholeSecure.host[22].wlan[0].mac rcvdPkFromLl:vector(packetBytes) ETV
attr interpolationmode none
attr source packetReceivedFromLower
attr title "packets received from lower layer, vector(packetBytes)"
vector 215 FanetGpsrGrayholeSecure.host[22].wlan[0].mac passedUpPk:vector(packetBytes) ETV
attr interpolationmode none
attr source packetSentToUpper
attr title "packets passed to higher layer, vector(packetBytes)"
vector 216 FanetGpsrGrayholeSecure.grayhole[11].wlan[0].mac rcvdPkFromLl:vector(packetBytes) ETV
attr interpolationmode none
attr source packetReceivedFromLower
attr title "packets received from lower layer, vector(packetBytes)"
vector 217 FanetGpsrGrayholeSecure.grayhole[11].wlan[0].mac passedUpPk:vector(packetBytes) ETV
attr interpolationmode none
attr source packetSentToUpper
attr title "packets passed to higher layer, vector(packetBytes)"
vector 218 FanetGpsrGrayholeSecure.grayhole[19].wlan[0].mac rcvdPkFromHl:vector(packetBytes) ETV
attr interpolationmode none
attr source packetReceivedFromUpper
attr title "packets received from higher layer, vector(packetBytes)"
vector 219 FanetGpsrGrayholeSecure.grayhole[19].wlan[0].mac.queue packetPushed:vector(packetBytes) ETV
attr interpolationmode none
attr title "packet pushed, vector(packetBytes)"
vector 220 FanetGpsrGrayholeSecure.grayhole[19].wlan[0].mac.queue queueLength:vector ETV
attr interpolationmode sample-hold
attr source "count(packetPushed) - count(packetPopped) - count(packetRemoved) - count(packetDropped)"
attr title "queue length, vector"
vector 221 FanetGpsrGrayholeSecure.grayhole[19].wlan[0].mac.queue packetPopped:vector(packetBytes) ETV
attr interpolationmode none
attr title "packet popped, vector(packetBytes)"
vector 222 FanetGpsrGrayholeSecure.grayhole[19].wlan[0].mac.queue queueingTime:vector ETV
attr interpolationmode none
attr source queueingTime(packetPopped)
attr title "queueing times, vector"
attr unit s
vector 223 FanetGpsrGrayholeSecure.grayhole[19].wlan[0].mac sentDownPk:vector(packetBytes) ETV
attr interpolationmode none
attr source packetSentToLower
attr title "packets sent to lower layer, vector(packetBytes)"
vector 224 FanetGpsrGrayholeSecure.grayhole[14].wlan[0].mac rcvdPkFromLl:vector(packetBytes) ETV
attr interpolationmode none
attr source packetReceivedFromLower
attr title "packets received from lower layer, vector(packetBytes)"
vector 225 FanetGpsrGrayholeSecure.grayhole[14].wlan[0].mac passedUpPk:vector(packetBytes) ETV
attr interpolationmode none
attr source packetSentToUpper
attr title "packets passed to higher layer, vector(packetBytes)"
vector 226 FanetGpsrGrayholeSecure.host[9].wlan[0].mac rcvdPkFromHl:vector(packetBytes) ETV
attr interpolationmode none
attr source packetReceivedFromUpper
attr title "packets received from higher layer, vector(packetBytes)"
vector 227 FanetGpsrGrayholeSecure.host[9].wlan[0].mac.queue packetPushed:vector(packetBytes) ETV
attr interpolationmode none
attr title "packet pushed, vector(packetBytes)"
vector 228 FanetGpsrGrayholeSecure.host[9].wlan[0].mac.queue queueLength:vector ETV
attr interpolationmode sample-hold
attr source "count(packetPushed) - count(packetPopped) - count(packetRemoved) - count(packetDropped)"
attr title "queue length, vector"
vector 229 FanetGpsrGrayholeSecure.host[9].wlan[0].mac.queue packetPopped:vector(packetBytes) ETV
attr interpolationmode none
attr title "packet popped, vector(packetBytes)"
vector 230 FanetGpsrGrayholeSecure.host[9].wlan[0].mac.queue queueingTime:vector ETV
attr interpolationmode none
attr source queueingTime(packetPopped)
attr title "queueing times, vector"
attr unit s
vector 231 FanetGpsrGrayholeSecure.host[9].wlan[0].mac sentDownPk:vector(packetBytes) ETV
attr interpolationmode none
attr source packetSentToLower
attr title "packets sent to lower layer, vector(packetBytes)"
vector 232 FanetGpsrGrayholeSecure.grayhole[20].wlan[0].mac rcvdPkFromLl:vector(packetBytes) ETV
attr interpolationmode none
attr source packetReceivedFromLower
attr title "packets received from lower layer, vector(packetBytes)"
vector 233 FanetGpsrGrayholeSecure.grayhole[20].wlan[0].mac passedUpPk:vector(packetBytes) ETV
attr interpolationmode none
attr source packetSentToUpper
attr title "packets passed to higher layer, vector(packetBytes)"
vector 234 FanetGpsrGrayholeSecure.grayhole[0].wlan[0].mac rcvdPkFromLl:vector(packetBytes) ETV
attr interpolationmode none
attr source packetReceivedFromLower
attr title "packets received from lower layer, vector(packetBytes)"
vector 235 FanetGpsrGrayholeSecure.grayhole[0].wlan[0].mac passedUpPk:vector(packetBytes) ETV
attr interpolationmode none
attr source packetSentToUpper
attr title "packets passed to higher layer, vector(packetBytes)"
vector 236 FanetGpsrGrayholeSecure.grayhole[8].wlan[0].mac rcvdPkFromHl:vector(packetBytes) ETV
attr interpolationmode none
attr source packetReceivedFromUpper
attr title "packets received from higher layer, vector(packetBytes)"
vector 237 FanetGpsrGrayholeSecure.grayhole[8].wlan[0].mac.queue packetPushed:vector(packetBytes) ETV
attr interpolationmode none
attr title "packet pushed, vector(packetBytes)"
vector 238 FanetGpsrGrayholeSecure.grayhole[8].wlan[0].mac.queue queueLength:vector ETV
attr interpolationmode sample-hold
attr source "count(packetPushed) - count(packetPopped) - count(packetRemoved) - count(packetDropped)"
attr title "queue length, vector"
vector 239 FanetGpsrGrayholeSecure.grayhole[8].wlan[0].mac.queue packetPopped:vector(packetBytes) ETV
attr interpolationmode none
attr title "packet popped, vector(packetBytes)"
vector 240 FanetGpsrGrayholeSecure.grayhole[8].wlan[0].mac.queue queueingTime:vector ETV
attr interpolationmode none
attr source queueingTime(packetPopped)
attr title "queueing times, vector"
attr unit s
vector 241 FanetGpsrGrayholeSecure.grayhole[8].wlan[0].mac sentDownPk:vector(packetBytes) ETV
attr interpolationmode none
attr source packetSentToLower
attr title "packets sent to lower layer, vector(packetBytes)"
vector 242 FanetGpsrGrayholeSecure.host[24].wlan[0].mac rcvdPkFromLl:vector(packetBytes) ETV
attr interpolationmode none
attr source packetReceivedFromLower
attr title "packets received from lower layer, vector(packetBytes)"
vector 243 FanetGpsrGrayholeSecure.host[24].wlan[0].mac passedUpPk:vector(packetBytes) ETV
attr interpolationmode none
attr source packetSentToUpper
attr title "packets passed to higher layer, vector(packetBytes)"
vector 244 FanetGpsrGrayholeSecure.grayhole[1].wlan[0].mac rcvdPkFromLl:vector(packetBytes) ETV
attr interpolationmode none
attr source packetReceivedFromLower
attr title "packets received from lower layer, vector(packetBytes)"
vector 245 FanetGpsrGrayholeSecure.grayhole[1].wlan[0].mac passedUpPk:vector(packetBytes) ETV
attr interpolationmode none
attr source packetSentToUpper
attr title "packets passed to higher layer, vector(packetBytes)"
vector 246 FanetGpsrGrayholeSecure.grayhole[22].wlan[0].mac rcvdPkFromLl:vector(packetBytes) ETV
attr interpolationmode none
attr source packetReceivedFromLower
attr title "packets received from lower layer, vector(packetBytes)"
vector 247 FanetGpsrGrayholeSecure.grayhole[22].wlan[0].mac passedUpPk:vector(packetBytes) ETV
attr interpolationmode none
attr source packetSentToUpper
attr title "packets passed to higher layer, vector(packetBytes)"
vector 248 FanetGpsrGrayholeSecure.host[20].wlan[0].mac rcvdPkFromLl:vector(packetBytes) ETV
attr interpolationmode none
attr source packetReceivedFromLower
attr title "packets received from lower layer, vector(packetBytes)"
vector 249 FanetGpsrGrayholeSecure.host[20].wlan[0].mac passedUpPk:vector(packetBytes) ETV
attr interpolationmode none
attr source packetSentToUpper
attr title "packets passed to higher layer, vector(packetBytes)"
vector 250 FanetGpsrGrayholeSecure.host[18].wlan[0].mac rcvdPkFromLl:vector(packetBytes) ETV
attr interpolationmode none
attr source packetReceivedFromLower
attr title "packets received from lower layer, vector(packetBytes)"
vector 251 FanetGpsrGrayholeSecure.host[18].wlan[0].mac passedUpPk:vector(packetBytes) ETV
attr interpolationmode none
attr source packetSentToUpper
attr title "packets passed to higher layer, vector(packetBytes)"
vector 252 FanetGpsrGrayholeSecure.host[5].wlan[0].mac rcvdPkFromLl:vector(packetBytes) ETV
attr interpolationmode none
attr source packetReceivedFromLower
attr title "packets received from lower layer, vector(packetBytes)"
vector 253 FanetGpsrGrayholeSecure.host[5].wlan[0].mac passedUpPk:vector(packetBytes) ETV
attr interpolationmode none
attr source packetSentToUpper
attr title "packets passed to higher layer, vector(packetBytes)"
vector 254 FanetGpsrGrayholeSecure.grayhole[18].wlan[0].mac rcvdPkFromLl:vector(packetBytes) ETV
attr interpolationmode none
attr source packetReceivedFromLower
attr title "packets received from lower layer, vector(packetBytes)"
vector 255 FanetGpsrGrayholeSecure.grayhole[18].wlan[0].mac passedUpPk:vector(packetBytes) ETV
attr interpolationmode none
attr source packetSentToUpper
attr title "packets passed to higher layer, vector(packetBytes)"
vector 256 FanetGpsrGrayholeSecure.grayhole[23].wlan[0].mac rcvdPkFromLl:vector(packetBytes) ETV
attr interpolationmode none
attr source packetReceivedFromLower
attr title "packets received from lower layer, vector(packetBytes)"
vector 257 FanetGpsrGrayholeSecure.grayhole[23].wlan[0].mac passedUpPk:vector(packetBytes) ETV
attr interpolationmode none
attr source packetSentToUpper
attr title "packets passed to higher layer, vector(packetBytes)"
vector 258 FanetGpsrGrayholeSecure.grayhole[4].wlan[0].mac rcvdPkFromLl:vector(packetBytes) ETV
attr interpolationmode none
attr source packetReceivedFromLower
attr title "packets received from lower layer, vector(packetBytes)"
vector 259 FanetGpsrGrayholeSecure.grayhole[4].wlan[0].mac passedUpPk:vector(packetBytes) ETV
attr interpolationmode none
attr source packetSentToUpper
attr title "packets passed to higher layer, vector(packetBytes)"
vector 260 FanetGpsrGrayholeSecure.grayhole[6].wlan[0].mac rcvdPkFromHl:vector(packetBytes) ETV
attr interpolationmode none
attr source packetReceivedFromUpper
attr title "packets received from higher layer, vector(packetBytes)"
vector 261 FanetGpsrGrayholeSecure.grayhole[6].wlan[0].mac.queue packetPushed:vector(packetBytes) ETV
attr interpolationmode none
attr title "packet pushed, vector(packetBytes)"
vector 262 FanetGpsrGrayholeSecure.grayhole[6].wlan[0].mac.queue queueLength:vector ETV
attr interpolationmode sample-hold
attr source "count(packetPushed) - count(packetPopped) - count(packetRemoved) - count(packetDropped)"
attr title "queue length, vector"
vector 263 FanetGpsrGrayholeSecure.grayhole[6].wlan[0].mac.queue packetPopped:vector(packetBytes) ETV
attr interpolationmode none
attr title "packet popped, vector(packetBytes)"
vector 264 FanetGpsrGrayholeSecure.grayhole[6].wlan[0].mac.queue queueingTime:vector ETV
attr interpolationmode none
attr source queueingTime(packetPopped)
attr title "queueing times, vector"
attr unit s
vector 265 FanetGpsrGrayholeSecure.grayhole[6].wlan[0].mac sentDownPk:vector(packetBytes) ETV
attr interpolationmode none
attr source packetSentToLower
attr title "packets sent to lower layer, vector(packetBytes)"
vector 266 FanetGpsrGrayholeSecure.grayhole[5].wlan[0].mac rcvdPkFromHl:vector(packetBytes) ETV
attr interpolationmode none
attr source packetReceivedFromUpper
attr title "packets received from higher layer, vector(packetBytes)"
vector 267 FanetGpsrGrayholeSecure.grayhole[5].wlan[0].mac.queue packetPushed:vector(packetBytes) ETV
attr interpolationmode none
attr title "packet pushed, vector(packetBytes)"
vector 268 FanetGpsrGrayholeSecure.grayhole[5].wlan[0].mac.queue queueLength:vector ETV
attr interpolationmode sample-hold
attr source "count(packetPushed) - count(packetPopped) - count(packetRemoved) - count(packetDropped)"
attr title "queue length, vector"
vector 269 FanetGpsrGrayholeSecure.grayhole[5].wlan[0].mac.queue packetPopped:vector(packetBytes) ETV
attr interpolationmode none
attr title "packet popped, vector(packetBytes)"
vector 270 FanetGpsrGrayholeSecure.grayhole[5].wlan[0].mac.queue queueingTime:vector ETV
attr interpolationmode none
attr source queueingTime(packetPopped)
attr title "queueing times, vector"
attr unit s
vector 271 FanetGpsrGrayholeSecure.grayhole[5].wlan[0].mac sentDownPk:vector(packetBytes) ETV
attr interpolationmode none
attr source packetSentToLower
attr title "packets sent to lower layer, vector(packetBytes)"
vector 272 FanetGpsrGrayholeSecure.grayhole[21].wlan[0].mac rcvdPkFromLl:vector(packetBytes) ETV
attr interpolationmode none
attr source packetReceivedFromLower
attr title "packets received from lower layer, vector(packetBytes)"
vector 273 FanetGpsrGrayholeSecure.grayhole[21].wlan[0].mac passedUpPk:vector(packetBytes) ETV
attr interpolationmode none
attr source packetSentToUpper
attr title "packets passed to higher layer, vector(packetBytes)"
vector 274 FanetGpsrGrayholeSecure.grayhole[9].wlan[0].mac rcvdPkFromHl:vector(packetBytes) ETV
attr interpolationmode none
attr source packetReceivedFromUpper
attr title "packets received from higher layer, vector(packetBytes)"
vector 275 FanetGpsrGrayholeSecure.grayhole[9].wlan[0].mac.queue packetPushed:vector(packetBytes) ETV
attr interpolationmode none
attr title "packet pushed, vector(packetBytes)"
vector 276 FanetGpsrGrayholeSecure.grayhole[9].wlan[0].mac.queue queueLength:vector ETV
attr interpolationmode sample-hold
attr source "count(packetPushed) - count(packetPopped) - count(packetRemoved) - count(packetDropped)"
attr title "queue length, vector"
vector 277 FanetGpsrGrayholeSecure.grayhole[9].wlan[0].mac.queue packetPopped:vector(packetBytes) ETV
attr interpolationmode none
attr title "packet popped, vector(packetBytes)"
vector 278 FanetGpsrGrayholeSecure.grayhole[9].wlan[0].mac.queue queueingTime:vector ETV
attr interpolationmode none
attr source queueingTime(packetPopped)
attr title "queueing times, vector"
attr unit s
vector 279 FanetGpsrGrayholeSecure.grayhole[9].wlan[0].mac sentDownPk:vector(packetBytes) ETV
attr interpolationmode none
attr source packetSentToLower
attr title "packets sent to lower layer, vector(packetBytes)"
vector 280 FanetGpsrGrayholeSecure.host[7].wlan[0].mac rcvdPkFromLl:vector(packetBytes) ETV
attr interpolationmode none
attr source packetReceivedFromLower
attr title "packets received from lower layer, vector(packetBytes)"
vector 281 FanetGpsrGrayholeSecure.host[7].wlan[0].mac passedUpPk:vector(packetBytes) ETV
attr interpolationmode none
attr source packetSentToUpper
attr title "packets passed to higher layer, vector(packetBytes)"
vector 282 FanetGpsrGrayholeSecure.grayhole[19].wlan[0].mac rcvdPkFromLl:vector(packetBytes) ETV
attr interpolationmode none
attr source packetReceivedFromLower
attr title "packets received from lower layer, vector(packetBytes)"
vector 283 FanetGpsrGrayholeSecure.grayhole[19].wlan[0].mac passedUpPk:vector(packetBytes) ETV
attr interpolationmode none
attr source packetSentToUpper
attr title "packets passed to higher layer, vector(packetBytes)"
vector 284 FanetGpsrGrayholeSecure.grayhole[7].wlan[0].mac rcvdPkFromHl:vector(packetBytes) ETV
attr interpolationmode none
attr source packetReceivedFromUpper
attr title "packets received from higher layer, vector(packetBytes)"
vector 285 FanetGpsrGrayholeSecure.grayhole[7].wlan[0].mac.queue packetPushed:vector(packetBytes) ETV
attr interpolationmode none
attr title "packet pushed, vector(packetBytes)"
vector 286 FanetGpsrGrayholeSecure.grayhole[7].wlan[0].mac.queue queueLength:vector ETV
attr interpolationmode sample-hold
attr source "count(packetPushed) - count(packetPopped) - count(packetRemoved) - count(packetDropped)"
attr title "queue length, vector"
vector 287 FanetGpsrGrayholeSecure.grayhole[7].wlan[0].mac.queue packetPopped:vector(packetBytes) ETV
attr interpolationmode none
attr title "packet popped, vector(packetBytes)"
vector 288 FanetGpsrGrayholeSecure.grayhole[7].wlan[0].mac.queue queueingTime:vector ETV
attr interpolationmode none
attr source queueingTime(packetPopped)
attr title "queueing times, vector"
attr unit s
vector 289 FanetGpsrGrayholeSecure.grayhole[7].wlan[0].mac sentDownPk:vector(packetBytes) ETV
attr interpolationmode none
attr source packetSentToLower
attr title "packets sent to lower layer, vector(packetBytes)"
vector 290 FanetGpsrGrayholeSecure.host[8].wlan[0].mac rcvdPkFromLl:vector(packetBytes) ETV
attr interpolationmode none
attr source packetReceivedFromLower
attr title "packets received from lower layer, vector(packetBytes)"
vector 291 FanetGpsrGrayholeSecure.host[8].wlan[0].mac passedUpPk:vector(packetBytes) ETV
attr interpolationmode none
attr source packetSentToUpper
attr title "packets passed to higher layer, vector(packetBytes)"
vector 292 FanetGpsrGrayholeSecure.grayhole[2].wlan[0].mac rcvdPkFromLl:vector(packetBytes) ETV
attr interpolationmode none
attr source packetReceivedFromLower
attr title "packets received from lower layer, vector(packetBytes)"
vector 293 FanetGpsrGrayholeSecure.grayhole[2].wlan[0].mac passedUpPk:vector(packetBytes) ETV
attr interpolationmode none
attr source packetSentToUpper
attr title "packets passed to higher layer, vector(packetBytes)"
vector 294 FanetGpsrGrayholeSecure.grayhole[15].wlan[0].mac rcvdPkFromLl:vector(packetBytes) ETV
attr interpolationmode none
attr source packetReceivedFromLower
attr title "packets received from lower layer, vector(packetBytes)"
vector 295 FanetGpsrGrayholeSecure.grayhole[15].wlan[0].mac passedUpPk:vector(packetBytes) ETV
attr interpolationmode none
attr source packetSentToUpper
attr title "packets passed to higher layer, vector(packetBytes)"
vector 296 FanetGpsrGrayholeSecure.host[12].wlan[0].mac rcvdPkFromLl:vector(packetBytes) ETV
attr interpolationmode none
attr source packetReceivedFromLower
attr title "packets received from lower layer, vector(packetBytes)"
vector 297 FanetGpsrGrayholeSecure.host[12].wlan[0].mac passedUpPk:vector(packetBytes) ETV
attr interpolationmode none
attr source packetSentToUpper
attr title "packets passed to higher layer, vector(packetBytes)"
vector 298 FanetGpsrGrayholeSecure.host[13].wlan[0].mac rcvdPkFromLl:vector(packetBytes) ETV
attr interpolationmode none
attr source packetReceivedFromLower
attr title "packets received from lower layer, vector(packetBytes)"
vector 299 FanetGpsrGrayholeSecure.host[13].wlan[0].mac passedUpPk:vector(packetBytes) ETV
attr interpolationmode none
attr source packetSentToUpper
attr title "packets passed to higher layer, vector(packetBytes)"
vector 300 FanetGpsrGrayholeSecure.grayhole[13].wlan[0].mac rcvdPkFromLl:vector(packetBytes) ETV
attr interpolationmode none
attr source packetReceivedFromLower
attr title "packets received from lower layer, vector(packetBytes)"
vector 301 FanetGpsrGrayholeSecure.grayhole[13].wlan[0].mac passedUpPk:vector(packetBytes) ETV
attr interpolationmode none
attr source packetSentToUpper
attr title "packets passed to higher layer, vector(packetBytes)"
vector 302 FanetGpsrGrayholeSecure.host[19].wlan[0].mac rcvdPkFromLl:vector(packetBytes) ETV
attr interpolationmode none
attr source packetReceivedFromLower
attr title "packets received from lower layer, vector(packetBytes)"
vector 303 FanetGpsrGrayholeSecure.host[19].wlan[0].mac passedUpPk:vector(packetBytes) ETV
attr interpolationmode none
attr source packetSentToUpper
attr title "packets passed to higher layer, vector(packetBytes)"
vector 304 FanetGpsrGrayholeSecure.host[10].wlan[0].mac rcvdPkFromLl:vector(packetBytes) ETV
attr interpolationmode none
attr source packetReceivedFromLower
attr title "packets received from lower layer, vector(packetBytes)"
vector 305 FanetGpsrGrayholeSecure.host[10].wlan[0].mac passedUpPk:vector(packetBytes) ETV
attr interpolationmode none
attr source packetSentToUpper
attr title "packets passed to higher layer, vector(packetBytes)"
vector 306 FanetGpsrGrayholeSecure.grayhole[16].wlan[0].mac rcvdPkFromHl:vector(packetBytes) ETV
attr interpolationmode none
attr source packetReceivedFromUpper
attr title "packets received from higher layer, vector(packetBytes)"
vector 307 FanetGpsrGrayholeSecure.grayhole[16].wlan[0].mac.queue packetPushed:vector(packetBytes) ETV
attr interpolationmode none
attr title "packet pushed, vector(packetBytes)"
vector 308 FanetGpsrGrayholeSecure.grayhole[16].wlan[0].mac.queue queueLength:vector ETV
attr interpolationmode sample-hold
attr source "count(packetPushed) - count(packetPopped) - count(packetRemoved) - count(packetDropped)"
attr title "queue length, vector"
vector 309 FanetGpsrGrayholeSecure.grayhole[16].wlan[0].mac.queue packetPopped:vector(packetBytes) ETV
attr interpolationmode none
attr title "packet popped, vector(packetBytes)"
vector 310 FanetGpsrGrayholeSecure.grayhole[16].wlan[0].mac.queue queueingTime:vector ETV
attr interpolationmode none
attr source queueingTime(packetPopped)
attr title "queueing times, vector"
attr unit s
vector 311 FanetGpsrGrayholeSecure.grayhole[16].wlan[0].mac sentDownPk:vector(packetBytes) ETV
attr interpolationmode none
attr source packetSentToLower
attr title "packets sent to lower layer, vector(packetBytes)"
vector 312 FanetGpsrGrayholeSecure.grayhole[8].wlan[0].mac rcvdPkFromLl:vector(packetBytes) ETV
attr interpolationmode none
attr source packetReceivedFromLower
attr title "packets received from lower layer, vector(packetBytes)"
vector 313 FanetGpsrGrayholeSecure.grayhole[8].wlan[0].mac passedUpPk:vector(packetBytes) ETV
attr interpolationmode none
attr source packetSentToUpper
attr title "packets passed to higher layer, vector(packetBytes)"
vector 314 FanetGpsrGrayholeSecure.grayhole[6].wlan[0].mac rcvdPkFromLl:vector(packetBytes) ETV
attr interpolationmode none
attr source packetReceivedFromLower
attr title "packets received from lower layer, vector(packetBytes)"
vector 315 FanetGpsrGrayholeSecure.grayhole[6].wlan[0].mac passedUpPk:vector(packetBytes) ETV
attr interpolationmode none
attr source packetSentToUpper
attr title "packets passed to higher layer, vector(packetBytes)"
vector 316 FanetGpsrGrayholeSecure.host[15].wlan[0].mac rcvdPkFromHl:vector(packetBytes) ETV
attr interpolationmode none
attr source packetReceivedFromUpper
attr title "packets received from higher layer, vector(packetBytes)"
vector 317 FanetGpsrGrayholeSecure.host[15].wlan[0].mac.queue packetPushed:vector(packetBytes) ETV
attr interpolationmode none
attr title "packet pushed, vector(packetBytes)"
vector 318 FanetGpsrGrayholeSecure.host[15].wlan[0].mac.queue queueLength:vector ETV
attr interpolationmode sample-hold
attr source "count(packetPushed) - count(packetPopped) - count(packetRemoved) - count(packetDropped)"
attr title "queue length, vector"
vector 319 FanetGpsrGrayholeSecure.host[15].wlan[0].mac.queue packetPopped:vector(packetBytes) ETV
attr interpolationmode none
attr title "packet popped, vector(packetBytes)"
vector 320 FanetGpsrGrayholeSecure.host[15].wlan[0].mac.queue queueingTime:vector ETV
attr interpolationmode none
attr source queueingTime(packetPopped)
attr title "queueing times, vector"
attr unit s
vector 321 FanetGpsrGrayholeSecure.host[15].wlan[0].mac sentDownPk:vector(packetBytes) ETV
attr interpolationmode none
attr source packetSentToLower
attr title "packets sent to lower layer, vector(packetBytes)"
vector 322 FanetGpsrGrayholeSecure.host[2].wlan[0].mac rcvdPkFromLl:vector(packetBytes) ETV
attr interpolationmode none
attr source packetReceivedFromLower
attr title "packets received from lower layer, vector(packetBytes)"
vector 323 FanetGpsrGrayholeSecure.host[2].wlan[0].mac passedUpPk:vector(packetBytes) ETV
attr interpolationmode none
attr source packetSentToUpper
attr title "packets passed to higher layer, vector(packetBytes)"
vector 324 FanetGpsrGrayholeSecure.grayhole[18].wlan[0].mac rcvdPkFromHl:vector(packetBytes) ETV
attr interpolationmode none
attr source packetReceivedFromUpper
attr title "packets received from higher layer, vector(packetBytes)"
vector 325 FanetGpsrGrayholeSecure.grayhole[18].wlan[0].mac.queue packetPushed:vector(packetBytes) ETV
attr interpolationmode none
attr title "packet pushed, vector(packetBytes)"
vector 326 FanetGpsrGrayholeSecure.grayhole[18].wlan[0].mac.queue queueLength:vector ETV
attr interpolationmode sample-hold
attr source "count(packetPushed) - count(packetPopped) - count(packetRemoved) - count(packetDropped)"
attr title "queue length, vector"
vector 327 FanetGpsrGrayholeSecure.grayhole[18].wlan[0].mac.queue packetPopped:vector(packetBytes) ETV
attr interpolationmode none
attr title "packet popped, vector(packetBytes)"
vector 328 FanetGpsrGrayholeSecure.grayhole[18].wlan[0].mac.queue queueingTime:vector ETV
attr interpolationmode none
attr source queueingTime(packetPopped)
attr title "queueing times, vector"
attr unit s
vector 329 FanetGpsrGrayholeSecure.grayhole[18].wlan[0].mac sentDownPk:vector(packetBytes) ETV
attr interpolationmode none
attr source packetSentToLower
attr title "packets sent to lower layer, vector(packetBytes)"
vector 330 FanetGpsrGrayholeSecure.host[21].wlan[0].mac rcvdPkFromLl:vector(packetBytes) ETV
attr interpolationmode none
attr source packetReceivedFromLower
attr title "packets received from lower layer, vector(packetBytes)"
vector 331 FanetGpsrGrayholeSecure.host[21].wlan[0].mac passedUpPk:vector(packetBytes) ETV
attr interpolationmode none
attr source packetSentToUpper
attr title "packets passed to higher layer, vector(packetBytes)"
vector 332 FanetGpsrGrayholeSecure.host[18].wlan[0].mac rcvdPkFromHl:vector(packetBytes) ETV
attr interpolationmode none
attr source packetReceivedFromUpper
attr title "packets received from higher layer, vector(packetBytes)"
vector 333 FanetGpsrGrayholeSecure.host[18].wlan[0].mac.queue packetPushed:vector(packetBytes) ETV
attr interpolationmode none
attr title "packet pushed, vector(packetBytes)"
vector 334 FanetGpsrGrayholeSecure.host[18].wlan[0].mac.queue queueLength:vector ETV
attr interpolationmode sample-hold
attr source "count(packetPushed) - count(packetPopped) - count(packetRemoved) - count(packetDropped)"
attr title "queue length, vector"
vector 335 FanetGpsrGrayholeSecure.host[18].wlan[0].mac.queue packetPopped:vector(packetBytes) ETV
attr interpolationmode none
attr title "packet popped, vector(packetBytes)"
vector 336 FanetGpsrGrayholeSecure.host[18].wlan[0].mac.queue queueingTime:vector ETV
attr interpolationmode none
attr source queueingTime(packetPopped)
attr title "queueing times, vector"
attr unit s
vector 337 FanetGpsrGrayholeSecure.host[18].wlan[0].mac sentDownPk:vector(packetBytes) ETV
attr interpolationmode none
attr source packetSentToLower
attr title "packets sent to lower layer, vector(packetBytes)"
vector 338 FanetGpsrGrayholeSecure.host[0].app[0] packetSent:vector(packetBytes) ETV
attr interpolationmode none
attr source packetSent
attr title "packets sent, vector(packetBytes)"
vector 339 FanetGpsrGrayholeSecure.host[0].udp packetSent:vector(packetBytes) ETV
attr interpolationmode none
attr source packetSent
attr title "packets sent, vector(packetBytes)"
vector 340 FanetGpsrGrayholeSecure.host[0].wlan[0].mac rcvdPkFromHl:vector(packetBytes) ETV
attr interpolationmode none
attr source packetReceivedFromUpper
attr title "packets received from higher layer, vector(packetBytes)"
vector 341 FanetGpsrGrayholeSecure.host[0].wlan[0].mac.queue packetPushed:vector(packetBytes) ETV
attr interpolationmode none
attr title "packet pushed, vector(packetBytes)"
vector 342 FanetGpsrGrayholeSecure.host[0].wlan[0].mac.queue queueLength:vector ETV
attr interpolationmode sample-hold
attr source "count(packetPushed) - count(packetPopped) - count(packetRemoved) - count(packetDropped)"
attr title "queue length, vector"
vector 343 FanetGpsrGrayholeSecure.host[0].wlan[0].mac.queue packetPopped:vector(packetBytes) ETV
attr interpolationmode none
attr title "packet popped, vector(packetBytes)"
vector 344 FanetGpsrGrayholeSecure.host[0].wlan[0].mac.queue queueingTime:vector ETV
attr interpolationmode none
attr source queueingTime(packetPopped)
attr title "queueing times, vector"
attr unit s
vector 345 FanetGpsrGrayholeSecure.host[0].wlan[0].mac sentDownPk:vector(packetBytes) ETV
attr interpolationmode none
attr source packetSentToLower
attr title "packets sent to lower layer, vector(packetBytes)"
vector 346 FanetGpsrGrayholeSecure.grayhole[9].wlan[0].mac packetDropNotAddressedToUs:vector(packetBytes) ETV
attr interpolationmode none
attr source packetDropReasonIsNotAddressedToUs(packetDropped)
attr title "packet drop: not addressed to us, vector(packetBytes)"
vector 347 FanetGpsrGrayholeSecure.grayhole[12].wlan[0].mac packetDropNotAddressedToUs:vector(packetBytes) ETV
attr interpolationmode none
attr source packetDropReasonIsNotAddressedToUs(packetDropped)
attr title "packet drop: not addressed to us, vector(packetBytes)"
vector 348 FanetGpsrGrayholeSecure.host[7].wlan[0].mac packetDropNotAddressedToUs:vector(packetBytes) ETV
attr interpolationmode none
attr source packetDropReasonIsNotAddressedToUs(packetDropped)
attr title "packet drop: not addressed to us, vector(packetBytes)"
vector 349 FanetGpsrGrayholeSecure.grayhole[14].wlan[0].mac packetDropNotAddressedToUs:vector(packetBytes) ETV
attr interpolationmode none
attr source packetDropReasonIsNotAddressedToUs(packetDropped)
attr title "packet drop: not addressed to us, vector(packetBytes)"
vector 350 FanetGpsrGrayholeSecure.host[3].wlan[0].mac packetDropNotAddressedToUs:vector(packetBytes) ETV
attr interpolationmode none
attr source packetDropReasonIsNotAddressedToUs(packetDropped)
attr title "packet drop: not addressed to us, vector(packetBytes)"
vector 351 FanetGpsrGrayholeSecure.host[1].wlan[0].mac packetDropNotAddressedToUs:vector(packetBytes) ETV
attr interpolationmode none
attr source packetDropReasonIsNotAddressedToUs(packetDropped)
attr title "packet drop: not addressed to us, vector(packetBytes)"
vector 352 FanetGpsrGrayholeSecure.host[11].wlan[0].mac packetDropNotAddressedToUs:vector(packetBytes) ETV
attr interpolationmode none
attr source packetDropReasonIsNotAddressedToUs(packetDropped)
attr title "packet drop: not addressed to us, vector(packetBytes)"
vector 353 FanetGpsrGrayholeSecure.grayhole[10].wlan[0].mac packetDropNotAddressedToUs:vector(packetBytes) ETV
attr interpolationmode none
attr source packetDropReasonIsNotAddressedToUs(packetDropped)
attr title "packet drop: not addressed to us, vector(packetBytes)"
vector 354 FanetGpsrGrayholeSecure.grayhole[21].wlan[0].mac packetDropNotAddressedToUs:vector(packetBytes) ETV
attr interpolationmode none
attr source packetDropReasonIsNotAddressedToUs(packetDropped)
attr title "packet drop: not addressed to us, vector(packetBytes)"
vector 355 FanetGpsrGrayholeSecure.grayhole[24].wlan[0].mac rcvdPkFromHl:vector(packetBytes) ETV
attr interpolationmode none
attr source packetReceivedFromUpper
attr title "packets received from higher layer, vector(packetBytes)"
vector 356 FanetGpsrGrayholeSecure.grayhole[24].wlan[0].mac.queue packetPushed:vector(packetBytes) ETV
attr interpolationmode none
attr title "packet pushed, vector(packetBytes)"
vector 357 FanetGpsrGrayholeSecure.grayhole[24].wlan[0].mac.queue queueLength:vector ETV
attr interpolationmode sample-hold
attr source "count(packetPushed) - count(packetPopped) - count(packetRemoved) - count(packetDropped)"
attr title "queue length, vector"
vector 358 FanetGpsrGrayholeSecure.grayhole[24].wlan[0].mac.queue packetPopped:vector(packetBytes) ETV
attr interpolationmode none
attr title "packet popped, vector(packetBytes)"
vector 359 FanetGpsrGrayholeSecure.grayhole[24].wlan[0].mac.queue queueingTime:vector ETV
attr interpolationmode none
attr source queueingTime(packetPopped)
attr title "queueing times, vector"
attr unit s
vector 360 FanetGpsrGrayholeSecure.grayhole[24].wlan[0].mac sentDownPk:vector(packetBytes) ETV
attr interpolationmode none
attr source packetSentToLower
attr title "packets sent to lower layer, vector(packetBytes)"
vector 361 FanetGpsrGrayholeSecure.grayhole[2].wlan[0].mac rcvdPkFromHl:vector(packetBytes) ETV
attr interpolationmode none
[...]
401	46866277 11552 3142709 4462965 424.964765178056 599.604909769283 362 0 1 181 181
402	46877829 5971 3142709 4462965 424.964765178056 599.604909769283 181 40 1068 14436 8262768
403	46883800 5776 3142709 4462965 424.964765178056 599.604909769283 181 0 0 0 0
404	46889576 5971 3142709 4462965 424.964765178056 599.604909769283 181 56 1084 17332 8771056
405	46895547 5960 3140566 4459499 424.658632629312 599.140422957946 181 40 40 7240 289600
406	46901507 5960 3140566 4459499 424.658632629312 599.140422957946 181 40 40 7240 289600
407	46907467 11558 3140566 4459499 424.658632629312 599.140422957946 362 0 1 181 181
408	46919025 5960 3140566 4459499 424.658632629312 599.140422957946 181 40 40 7240 289600
409	46924985 5779 3140566 4459499 424.658632629312 599.140422957946 181 0 0 0 0
410	46930764 5960 3140566 4459499 424.658632629312 599.140422957946 181 56 56 10136 567616
411	46936724 6960 3138379 4460271 424.402804313599 599.214987326184 210 40 1068 38212 33367696
412	46943684 6960 3138379 4460271 424.402804313599 599.214987326184 210 40 1068 38212 33367696
413	46950644 13384 3138379 4460271 424.402804313599 599.214987326184 420 0 1 210 210
414	46964028 6960 3138379 4460271 424.402804313599 599.214987326184 210 40 1068 38212 33367696
415	46970988 6692 3138379 4460271 424.402804313599 599.214987326184 210 0 0 0 0
416	46977680 6960 3138379 4460271 424.402804313599 599.214987326184 210 56 1084 41572 34644240
417	46984640 6153 3147886 4457788 425.674077784174 598.970390603639 187 40 1068 11592 4855296
418	46990793 6153 3147886 4457788 425.674077784174 598.970390603639 187 40 1068 11592 4855296
419	46996946 11916 3147886 4457788 425.674077784174 598.970390603639 374 0 1 187 187
420	47008862 6153 3147886 4457788 425.674077784174 598.970390603639 187 40 1068 11592 4855296
421	47015015 5958 3147886 4457788 425.674077784174 598.970390603639 187 0 0 0 0
422	47020973 6153 3147886 4457788 425.674077784174 598.970390603639 187 56 1084 14584 5274112
423	47027126 6023 3139713 4462106 424.559613167781 599.512249293507 183 40 40 7320 292800
424	47033149 6023 3139713 4462106 424.559613167781 599.512249293507 183 40 40 7320 292800
425	47039172 11680 3139713 4462106 424.559613167781 599.512249293507 366 0 1 183 183
426	47050852 6023 3139713 4462106 424.559613167781 599.512249293507 183 40 40 7320 292800
427	47056875 5840 3139713 4462106 424.559613167781 599.512249293507 183 0 0 0 0
428	47062715 6023 3139713 4462106 424.559613167781 599.512249293507 183 56 56 10248 573888
429	47068738 5853 3141977 4458686 424.85723508126 599.053970756241 178 40 40 7120 284800
430	47074591 5853 3141977 4458686 424.85723508126 599.053970756241 178 40 40 7120 284800
431	47080444 11350 3141977 4458686 424.85723508126 599.053970756241 356 0 1 178 178
432	47091794 5853 3141977 4458686 424.85723508126 599.053970756241 178 40 40 7120 284800
433	47097647 5675 3141977 4458686 424.85723508126 599.053970756241 178 0 0 0 0
434	47103322 5853 3141977 4458686 424.85723508126 599.053970756241 178 56 56 9968 558208
435	47109175 5623 3145003 4462618 425.276199218586 599.569429351487 171 40 40 6840 273600
436	47114798 5623 3145003 4462618 425.276199218586 599.569429351487 171 40 40 6840 273600
437	47120421 10904 3145003 4462618 425.276199218586 599.569429351487 342 0 1 171 171
438	47131325 5623 3145003 4462618 425.276199218586 599.569429351487 171 40 40 6840 273600
439	47136948 5452 3145003 4462618 425.276199218586 599.569429351487 171 0 0 0 0
440	47142400 5623 3145003 4462618 425.276199218586 599.569429351487 171 56 56 9576 536256
441	47148023 5790 3144601 4465540 425.241427857666 599.939495437314 176 40 40 7040 281600
442	47153813 5790 3144601 4465540 425.241427857666 599.939495437314 176 40 40 7040 281600
443	47159603 11228 3144601 4465540 425.241427857666 599.939495437314 352 0 1 176 176
444	47170831 5790 3144601 4465540 425.241427857666 599.939495437314 176 40 40 7040 281600
445	47176621 5614 3144601 4465540 425.241427857666 599.939495437314 176 0 0 0 0
446	47182235 5790 3144601 4465540 425.241427857666 599.939495437314 176 56 56 9856 551936
447	47188025 5969 3144178 4464373 425.164096370339 599.725962199266 181 40 1068 15464 9401792
448	47193994 5969 3144178 4464373 425.164096370339 599.725962199266 181 40 1068 15464 9401792
449	47199963 11544 3144178 4464373 425.164096370339 599.725962199266 362 0 1 181 181
450	47211507 5969 3144178 4464373 425.164096370339 599.725962199266 181 40 1068 15464 9401792
451	47217476 5772 3144178 4464373 425.164096370339 599.725962199266 181 0 0 0 0
452	47223248 5969 3144178 4464373 425.164096370339 599.725962199266 181 56 1084 18360 9942976
453	47229217 5779 3141135 4461391 424.731067044671 599.394873298483 176 40 40 7040 281600
454	47234996 5779 3141135 4461391 424.731067044671 599.394873298483 176 40 40 7040 281600
455	47240775 11206 3141135 4461391 424.731067044671 599.394873298483 352 0 1 176 176
456	47251981 5779 3141135 4461391 424.731067044671 599.394873298483 176 40 40 7040 281600
457	47257760 5603 3141135 4461391 424.731067044671 599.394873298483 176 0 0 0 0
458	47263363 5779 3141135 4461391 424.731067044671 599.394873298483 176 56 56 9856 551936
459	47269142 8879 3139829 4464094 424.579814122516 599.713683827768 265 40 1068 100036 99519088
460	47278021 8879 3139829 4464094 424.579814122516 599.713683827768 265 40 1068 100036 99519088
461	47286900 16880 3139829 4464094 424.579814122516 599.713683827768 530 0 1 265 265
462	47303780 8879 3139829 4464094 424.579814122516 599.713683827768 265 40 1068 100036 99519088
463	47312659 8452 3139829 4464094 424.579814122516 599.713683827768 265 0 0.03951594094 0.03951594094 0.0015615095883736
464	47321111 8879 3139829 4464094 424.579814122516 599.713683827768 265 56 1084 104276 102788080
465	47329990 5690 3142428 4464249 424.906373301298 599.725097423889 173 40 40 6920 276800
466	47335680 5690 3142428 4464249 424.906373301298 599.725097423889 173 40 40 6920 276800
467	47341370 11034 3142428 4464249 424.906373301298 599.725097423889 346 0 1 173 173
468	47352404 5690 3142428 4464249 424.906373301298 599.725097423889 173 40 40 6920 276800
469	47358094 5517 3142428 4464249 424.906373301298 599.725097423889 173 0 0 0 0
470	47363611 5690 3142428 4464249 424.906373301298 599.725097423889 173 56 56 9688 542528
471	47369301 5825 3141004 4462348 424.706983462672 599.517279851716 177 40 40 7080 283200
472	47375126 5825 3141004 4462348 424.706983462672 599.517279851716 177 40 40 7080 283200
473	47380951 11296 3141004 4462348 424.706983462672 599.517279851716 354 0 1 177 177
474	47392247 5825 3141004 4462348 424.706983462672 599.517279851716 177 40 40 7080 283200
475	47398072 5648 3141004 4462348 424.706983462672 599.517279851716 177 0 0 0 0
476	47403720 5825 3141004 4462348 424.706983462672 599.517279851716 177 56 56 9912 555072
477	47409545 5659 3145565 4463115 425.369222830513 599.640055019171 172 40 40 6880 275200
478	47415204 5659 3145565 4463115 425.369222830513 599.640055019171 172 40 40 6880 275200
479	47420863 10974 3145565 4463115 425.369222830513 599.640055019171 344 0 1 172 172
480	47431837 5659 3145565 4463115 425.369222830513 599.640055019171 172 40 40 6880 275200
481	47437496 5487 3145565 4463115 425.369222830513 599.640055019171 172 0 0 0 0
482	47442983 5659 3145565 4463115 425.369222830513 599.640055019171 172 56 56 9632 539392
483	47448642 5763 3148198 4465829 425.702467057615 599.998333342834 175 40 40 7000 280000
484	47454405 5763 3148198 4465829 425.702467057615 599.998333342834 175 40 40 7000 280000
485	47460168 11176 3148198 4465829 425.702467057615 599.998333342834 350 0 1 175 175
486	47471344 5763 3148198 4465829 425.702467057615 599.998333342834 175 40 40 7000 280000
487	47477107 5588 3148198 4465829 425.702467057615 599.998333342834 175 0 0 0 0
488	47482695 5763 3148198 4465829 425.702467057615 599.998333342834 175 56 56 9800 548800
489	47488458 6106 3139969 4462484 424.593064831574 599.528243658598 185 40 1068 15624 9408192
490	47494564 6106 3139969 4462484 424.593064831574 599.528243658598 185 40 1068 15624 9408192
491	47500670 11810 3139969 4462484 424.593064831574 599.528243658598 370 0 1 185 185
492	47512480 6106 3139969 4462484 424.593064831574 599.528243658598 185 40 1068 15624 9408192
493	47518586 5918 3139969 4462484 424.593064831574 599.528243658598 185 0 0.066176039573 0.066176039573 0.0043792682135673
494	47524504 6106 3139969 4462484 424.593064831574 599.528243658598 185 56 1084 18584 9955520
495	47530610 5848 3143622 4463909 425.110844220029 599.682930378702 178 40 40 7120 284800
496	47536458 5848 3143622 4463909 425.110844220029 599.682930378702 178 40 40 7120 284800
497	47542306 11340 3143622 4463909 425.110844220029 599.682930378702 356 0 1 178 178
498	47553646 5848 3143622 4463909 425.110844220029 599.682930378702 178 40 40 7120 284800
499	47559494 5670 3143622 4463909 425.110844220029 599.682930378702 178 0 0 0 0
500	47565164 5848 3143622 4463909 425.110844220029 599.682930378702 178 56 56 9968 558208
501	47571012 6089 3141269 4459172 424.76615300962 599.074418301238 185 40 40 7400 296000
502	47577101 6089 3141269 4459172 424.76615300962 599.074418301238 185 40 40 7400 296000
503	47583190 11808 3141269 4459172 424.76615300962 599.074418301238 370 0 1 185 185
504	47594998 6089 3141269 4459172 424.76615300962 599.074418301238 185 40 40 7400 296000
505	47601087 5904 3141269 4459172 424.76615300962 599.074418301238 185 0 0 0 0
506	47606991 6089 3141269 4459172 424.76615300962 599.074418301238 185 56 56 10360 580160
507	47613080 5755 3144874 4458275 425.258960959738 599.003989466473 175 40 40 7000 280000
508	47618835 5755 3144874 4458275 425.258960959738 599.003989466473 175 40 40 7000 280000
509	47624590 11160 3144874 4458275 425.258960959738 599.003989466473 350 0 1 175 175
510	47635750 5755 3144874 4458275 425.258960959738 599.003989466473 175 40 40 7000 280000
511	47641505 5580 3144874 4458275 425.258960959738 599.003989466473 175 0 0 0 0
512	47647085 5755 3144874 4458275 425.258960959738 599.003989466473 175 56 56 9800 548800
513	47652840 5786 3140689 4457151 424.687255993483 598.890520265325 176 40 40 7040 281600
514	47658626 5786 3140689 4457151 424.687255993483 598.890520265325 176 40 40 7040 281600
515	47664412 11220 3140689 4457151 424.687255993483 598.890520265325 352 0 1 176 176
516	47675632 5786 3140689 4457151 424.687255993483 598.890520265325 176 40 40 7040 281600
517	47681418 5610 3140689 4457151 424.687255993483 598.890520265325 176 0 0 0 0
518	47687028 5786 3140689 4457151 424.687255993483 598.890520265325 176 56 56 9856 551936
519	47692814 8475 3146472 4457940 425.50340570229 598.990554787904 253 40 1068 90304 89248672
520	47701289 8475 3146472 4457940 425.50340570229 598.990554787904 253 40 1068 90304 89248672
521	47709764 16132 3146472 4457940 425.50340570229 598.990554787904 506 0 1 253 253
522	47725896 8475 3146472 4457940 425.50340570229 598.990554787904 253 40 1068 90304 89248672
523	47734371 8066 3146472 4457940 425.50340570229 598.990554787904 253 0 0 0 0
524	47742437 8475 3146472 4457940 425.50340570229 598.990554787904 253 56 1084 94352 92203168
525	47750912 5657 3140822 4464520 424.690648069371 599.747816505605 172 40 40 6880 275200
526	47756569 5657 3140822 4464520 424.690648069371 599.747816505605 172 40 40 6880 275200
527	47762226 10970 3140822 4464520 424.690648069371 599.747816505605 344 0 1 172 172
528	47773196 5657 3140822 4464520 424.690648069371 599.747816505605 172 40 40 6880 275200
529	47778853 5485 3140822 4464520 424.690648069371 599.747816505605 172 0 0 0 0
530	47784338 5657 3140822 4464520 424.690648069371 599.747816505605 172 56 56 9632 539392
531	47789995 5691 3141700 4463337 424.802746420016 599.652886881949 173 40 40 6920 276800
532	47795686 5691 3141700 4463337 424.802746420016 599.652886881949 173 40 40 6920 276800
533	47801377 11036 3141700 4463337 424.802746420016 599.652886881949 346 0 1 173 173
534	47812413 5691 3141700 4463337 424.802746420016 599.652886881949 173 40 40 6920 276800
535	47818104 5518 3141700 4463337 424.802746420016 599.652886881949 173 0 0 0 0
536	47823622 5691 3141700 4463337 424.802746420016 599.652886881949 173 56 56 9688 542528
537	47829313 5961 3143054 4461279 425.002583040629 599.387924575951 181 40 40 7240 289600
538	47835274 5961 3143054 4461279 425.002583040629 599.387924575951 181 40 40 7240 289600
539	47841235 11560 3143054 4461279 425.002583040629 599.387924575951 362 0 1 181 181
540	47852795 5961 3143054 4461279 425.002583040629 599.387924575951 181 40 40 7240 289600
541	47858756 5780 3143054 4461279 425.002583040629 599.387924575951 181 0 0 0 0
542	47864536 5961 3143054 4461279 425.002583040629 599.387924575951 181 56 56 10136 567616
543	47870497 6062 3145278 4457636 425.304740587711 598.925204928263 184 40 1068 9416 2572448
544	47876559 6062 3145278 4457636 425.304740587711 598.925204928263 184 40 1068 9416 2572448
545	47882621 11748 3145278 4457636 425.304740587711 598.925204928263 368 0 1 184 184
546	47894369 6062 3145278 4457636 425.304740587711 598.925204928263 184 40 1068 9416 2572448
547	47900431 5874 3145278 4457636 425.304740587711 598.925204928263 184 0 0 0 0
548	47906305 6062 3145278 4457636 425.304740587711 598.925204928263 184 56 1084 12360 2920864
549	47912367 5787 3143761 4464972 425.118288741675 599.811626725592 176 40 40 7040 281600
550	47918154 5787 3143761 4464972 425.118288741675 599.811626725592 176 40 40 7040 281600
551	47923941 11222 3143761 4464972 425.118288741675 599.811626725592 352 0 1 176 176
552	47935163 5787 3143761 4464972 425.118288741675 599.811626725592 176 40 40 7040 281600
553	47940950 5611 3143761 4464972 425.118288741675 599.811626725592 176 0 0 0 0
554	47946561 5787 3143761 4464972 425.118288741675 599.811626725592 176 56 56 9856 551936
555	47952348 7150 3138490 4460642 424.40317058849 599.25939732809 215 40 1068 46636 42487888
556	47959498 7150 3138490 4460642 424.40317058849 599.25939732809 215 40 1068 46636 42487888
557	47966648 13722 3138490 4460642 424.40317058849 599.25939732809 430 0 1 215 215
558	47980370 7150 3138490 4460642 424.40317058849 599.25939732809 215 40 1068 46636 42487888
559	47987520 6861 3138490 4460642 424.40317058849 599.25939732809 215 0 0 0 0
560	47994381 7150 3138490 4460642 424.40317058849 599.25939732809 215 56 1084 50076 44035280
561	48001531 12551 3138363 4460645 424.402803702948 599.259397331952 360 1084 1084 390240 423020160
562	48014082 10470 3138369 4460647 424.402803973899 599.259397388166 300 1084 1084 325200 352516800
563	48024552 10503 3138482 4460738 424.403170444318 599.259763073998 301 1084 1084 326284 353691856
564	48035055 13928 3138371 4460630 424.402804002251 599.259397217271 399 1084 1084 432516 468847344
565	48048983 4711 3138709 4459113 424.403902802366 599.064403709519 135 1084 1084 146340 158632560
566	48053694 2753 3138585 4460748 424.403536335479 599.259763313416 79 1084 1084 85636 92829424
567	48056447 1151 3138706 4449325 424.403902722729 597.82110354642 33 1008 1008 33264 33530112
568	48057598 1118 3138706 4449325 424.403902722729 597.82110354642 33 299 331 10395 3277417
569	48058716 1151 3138707 4449326 424.403902722729 597.82110354642 33 1000 1000 33000 33000000
570	48059867 38113 3138707 4466007 417.5 600 1826 0 160000 2720000 230400000000
571	48097980 1474 3138707 4449326 424.403902722729 597.82110354642 33 0.00109848996 0.001464900316 0.043205072756 5.7645227968861e-005
572	48099454 1118 3138707 4449326 424.403902722729 597.82110354642 33 441 632 17078 8982812
573	48100572 805 3156900 4459129 426.924752599245 599.064404046189 23 1084 1084 24932 27026288
574	48101377 7227 3138495 4460759 424.403170610377 599.259763580455 207 1084 1084 224388 243236592
575	48108604 279 3417496 4284673 461.26055984587 576.097105101027 8 1084 1084 8672 9400448
576	48108883 11410 3138361 4460622 424.402803574496 599.259396985545 327 1084 1084 354468 384243312
577	48120293 66 3163146 4219520 427.658723110366 567.538124744808 2 56 56 112 6272
579	48120359 35 4194363 4194363 564.081076486264 564.081076486264 1 1084 1084 1084 1175056
580	48120394 35 4194347 4194347 564.081076082101 564.081076082101 1 1084 1084 1084 1175056
581	48120429 101 3205940 4183007 433.217738723226 562.608714206469 3 56 1084 1196 1181328
582	48120530 35 4194361 4194361 564.081076443153 564.081076443153 1 1084 1084 1084 1175056
583	48120565 99 3205942 4183001 433.217738782228 562.608714062532 3 56 56 168 9408
584	48120664 33 4183027 4183027 562.608714490705 562.608714490705 1 56 56 56 3136
586	48120697 33 3460073 3460073 467.090412949834 467.090412949834 1 56 56 56 3136
587	48120730 66 3460069 4183047 467.090412782386 562.608714679681 2 56 56 112 6272
588	48120796 14473 3138367 4460763 424.402803840518 599.259763625396 415 1084 1084 449860 487648240
589	48135269 2402 3138602 4459123 424.403536849422 599.064403890944 69 1084 1084 74796 81078864
590	48137671 3242 3138589 4460740 424.403536460765 599.259763091771 93 1084 1084 100812 109280208
591	48140913 6319 3188469 4460734 431.037077850248 599.259762990109 181 1084 1084 196204 212685136
592	48147232 2163 3188483 4459131 431.037077983585 599.064404110829 62 1084 1084 67208 72853472
593	48149395 34 3230813 3230813 436.48120460332 436.48120460332 1 1084 1084 1084 1175056
594	48149429 67 3205944 4194345 433.217738810504 564.08107604847 2 56 1084 1140 1178192
595	48149496 33 3460067 3460067 467.090412765005 467.090412765005 1 56 56 56 3136
596	48149529 33 3460055 3460055 467.090412631022 467.090412631022 1 56 56 56 3136
600	48149562 12815 3138604 4460624 424.403536863381 599.259397009092 367 1084 1084 397828 431245552
602	48162377 66 3460071 4183003 467.090412834423 562.608714096823 2 56 56 112 6272
603	48162443 33 4219526 4219526 567.538124845666 567.538124845666 1 56 56 56 3136
604	48162476 33 3460075 3460075 467.090412954658 467.090412954658 1 56 56 56 3136
605	48162509 64 3460065 4183005 467.09041270116 562.60871415969 2 56 56 112 6272
606	48162573 64 3460063 4183045 467.0904127011 562.608714674944 2 56 56 112 6272
608	48162637 12069 3138493 4460757 424.403170595976 599.259763512301 346 1084 1084 375064 406569376
610	48174706 33 4183009 4183009 562.608714207376 562.608714207376 1 56 56 56 3136
611	48174739 3840 3138593 4460732 424.403536682255 599.25976287318 110 1084 1084 119240 129256160
612	48178579 4775 3289618 4460765 444.308100948081 599.259763641852 137 1084 1084 148508 160982672
613	48183354 35 3230824 3230824 436.481204806843 436.481204806843 1 1084 1084 1084 1175056
615	48183389 35 4194351 4194351 564.081076286821 564.081076286821 1 1084 1084 1084 1175056
616	48183424 4286 3630082 4460755 489.673675705052 599.259763487973 123 1084 1084 133332 144531888
619	48187710 66 3163152 4219528 427.658723330596 567.538124900239 2 56 56 112 6272
620	48187776 33 3163162 3163162 427.658723460431 427.658723460431 1 56 56 56 3136
621	48187809 66 3163164 4219530 427.658723472322 567.538125027086 2 56 56 112 6272
622	48187875 66 3163166 4219514 427.658723498153 567.538124697938 2 56 56 112 6272
623	48187941 1396 3263201 4460744 440.70615988467 599.259763139098 40 1084 1084 43360 47002240
624	48189337 66 3267638 4183035 441.321647124614 562.608714589862 2 56 56 112 6272
625	48189403 1917 3289067 4460736 444.27912159582 599.259763014784 55 1084 1084 59620 64628080
626	48191320 2268 3289069 4460742 444.279121621433 599.259763100796 65 1084 1084 70460 76378640
627	48193588 33 4183033 4183033 562.608714589029 562.608714589029 1 56 56 56 3136
628	48193621 35 4194355 4194355 564.081076314906 564.081076314906 1 1084 1084 1084 1175056
629	48193656 35 4284659 4284659 576.097104731315 576.097104731315 1 1084 1084 1084 1175056
630	48193691 35 4284678 4284678 576.097105175862 576.097105175862 1 1084 1084 1084 1175056
631	48193726 35 4284684 4284684 576.097105196304 576.097105196304 1 1084 1084 1084 1175056
632	48193761 123702 4466007 4466007 0.1 600 6000 0 0 0 0

