version 2
run _3D_Turtle_Grayhole_Secure-0-20210913-18:47:39-10492
attr configname _3D_Turtle_Grayhole_Secure
attr datetime 20210913-18:47:39
attr experiment _3D_Turtle_Grayhole_Secure
attr inifile omnetpp.ini
attr iterationvars ""
attr iterationvarsf ""
attr measurement ""
attr network FanetGpsrGrayholeSecure
attr processid 10492
attr repetition 0
attr replication #0
attr resultdir results
attr runnumber 0
attr seedset 0
param *.host[*].osgModel "\"3d/drone.ive.100.scale.0,0,90.rot\""
param *.host*.mobility.typename "\"TurtleMobility\""
param *.host*.mobility.turtleScript "xmldoc(\"config.xml\")"
param *.host[0].numApps 1
param *.host[0].app[0].typename "\"UdpBasicApp\""
param *.host[0].app[0].destAddresses "\"host[20]\""
param *.host[0].app[0].destPort 5000
param *.host[0].app[0].messageLength 1000B
param *.host[0].app[0].sendInterval exponential(1s)
param *.host[0].app[0].packetName "\"UDPData\""
param *.host[20].numApps 1
param *.host[20].app[0].typename "\"UdpSink\""
param *.host[20].app[0].localPort 5000
param **.wlan[*].bitrate 24Mbps
param *.configurator.addStaticRoutes false
param **.netmaskRoutes "\"\""
param **.arp.typename "\"GlobalArp\""
param **.planarizationMode "\"RNG\""
param **.beaconInterval 1s
param *.host*.wlan[0].typename "\"AckingWirelessInterface\""
param *.host*.wlan[0].radio.transmitter.communicationRange 300m
param *.visualizer.osgVisualizer.typename "\"IntegratedOsgVisualizer\""
param *.visualizer.osgVisualizer.sceneVisualizer.typename "\"SceneOsgEarthVisualizer\""
param *.visualizer.osgVisualizer.sceneVisualizer.mapFile "\"unical.earth\""
param *.coordinateSystem.sceneLongitude 16.2215deg
param *.coordinateSystem.sceneLatitude 39.3701deg
param *.visualizer.osgVisualizer.sceneVisualizer.clearColor "\"skyblue\""
param *.visualizer.osgVisualizer.sceneVisualizer.sceneShading false
param *.visualizer.osgVisualizer.sceneVisualizer.sceneColor "\"#000000\""
param *.visualizer.osgVisualizer.sceneVisualizer.sceneOpacity 0.0
param *.visualizer.osgVisualizer.sceneVisualizer.sceneImageSize 4000m
param *.visualizer.osgVisualizer.sceneVisualizer.axisLength 2000m
param *.visualizer.osgVisualizer.sceneVisualizer.sceneMinX 0m
param *.visualizer.osgVisualizer.sceneVisualizer.sceneMinY 0m
param *.visualizer.osgVisualizer.sceneVisualizer.sceneMinZ 0m
param *.visualizer.osgVisualizer.sceneVisualizer.sceneMaxX 1700m
param *.visualizer.osgVisualizer.sceneVisualizer.sceneMaxY 300m
param *.visualizer.osgVisualizer.sceneVisualizer.sceneMaxZ 20m
param *.coordinateSystem.sceneAltitude 20m
param *.coordinateSystem.sceneHeading 169deg
param *.visualizer.osgVisualizer.networkNodeVisualizer.displayModuleName false
param *.visualizer.*.mobilityVisualizer.displayMobility true
param *.visualizer.*.mobilityVisualizer.displayPositions true
param *.visualizer.*.mobilityVisualizer.displayOrientations true
param *.visualizer.*.mobilityVisualizer.displayVelocities true
param *.visualizer.*.mobilityVisualizer.displayMovementTrails true
param *.visualizer.*.mobilityVisualizer.animationSpeed 1
param **.constraintAreaMinX 0m
param **.constraintAreaMinY 0m
param **.constraintAreaMinZ 200m
param **.constraintAreaMaxX 1500m
param **.constraintAreaMaxY 800m
param **.constraintAreaMaxZ 400m

vector 0 FanetGpsrGrayholeSecure.host[0].wlan[0].radio radioMode:vector ETV
attr interpolationmode sample-hold
attr source radioModeChanged
attr title "Radio mode, vector"
vector 1 FanetGpsrGrayholeSecure.host[1].wlan[0].radio radioMode:vector ETV
attr interpolationmode sample-hold
attr source radioModeChanged
attr title "Radio mode, vector"
vector 2 FanetGpsrGrayholeSecure.host[2].wlan[0].radio radioMode:vector ETV
attr interpolationmode sample-hold
attr source radioModeChanged
attr title "Radio mode, vector"
vector 3 FanetGpsrGrayholeSecure.host[3].wlan[0].radio radioMode:vector ETV
attr interpolationmode sample-hold
attr source radioModeChanged
attr title "Radio mode, vector"
vector 4 FanetGpsrGrayholeSecure.host[4].wlan[0].radio radioMode:vector ETV
attr interpolationmode sample-hold
attr source radioModeChanged
attr title "Radio mode, vector"
vector 5 FanetGpsrGrayholeSecure.host[5].wlan[0].radio radioMode:vector ETV
attr interpolationmode sample-hold
attr source radioModeChanged
attr title "Radio mode, vector"
vector 6 FanetGpsrGrayholeSecure.host[6].wlan[0].radio radioMode:vector ETV
attr interpolationmode sample-hold
attr source radioModeChanged
attr title "Radio mode, vector"
vector 7 FanetGpsrGrayholeSecure.host[7].wlan[0].radio radioMode:vector ETV
attr interpolationmode sample-hold
attr source radioModeChanged
attr title "Radio mode, vector"
vector 8 FanetGpsrGrayholeSecure.host[8].wlan[0].radio radioMode:vector ETV
attr interpolationmode sample-hold
attr source radioModeChanged
attr title "Radio mode, vector"
vector 9 FanetGpsrGrayholeSecure.host[9].wlan[0].radio radioMode:vector ETV
attr interpolationmode sample-hold
attr source radioModeChanged
attr title "Radio mode, vector"
vector 10 FanetGpsrGrayholeSecure.host[10].wlan[0].radio radioMode:vector ETV
attr interpolationmode sample-hold
attr source radioModeChanged
attr title "Radio mode, vector"
vector 11 FanetGpsrGrayholeSecure.host[11].wlan[0].radio radioMode:vector ETV
attr interpolationmode sample-hold
attr source radioModeChanged
attr title "Radio mode, vector"
vector 12 FanetGpsrGrayholeSecure.host[12].wlan[0].radio radioMode:vector ETV
attr interpolationmode sample-hold
attr source radioModeChanged
attr title "Radio mode, vector"
vector 13 FanetGpsrGrayholeSecure.host[13].wlan[0].radio radioMode:vector ETV
attr interpolationmode sample-hold
attr source radioModeChanged
attr title "Radio mode, vector"
vector 14 FanetGpsrGrayholeSecure.host[14].wlan[0].radio radioMode:vector ETV
attr interpolationmode sample-hold
attr source radioModeChanged
attr title "Radio mode, vector"
vector 15 FanetGpsrGrayholeSecure.host[15].wlan[0].radio radioMode:vector ETV
attr interpolationmode sample-hold
attr source radioModeChanged
attr title "Radio mode, vector"
vector 16 FanetGpsrGrayholeSecure.host[16].wlan[0].radio radioMode:vector ETV
attr interpolationmode sample-hold
attr source radioModeChanged
attr title "Radio mode, vector"
vector 17 FanetGpsrGrayholeSecure.host[17].wlan[0].radio radioMode:vector ETV
attr interpolationmode sample-hold
attr source radioModeChanged
attr title "Radio mode, vector"
vector 18 FanetGpsrGrayholeSecure.host[18].wlan[0].radio radioMode:vector ETV
attr interpolationmode sample-hold
attr source radioModeChanged
attr title "Radio mode, vector"
vector 19 FanetGpsrGrayholeSecure.host[19].wlan[0].radio radioMode:vector ETV
attr interpolationmode sample-hold
attr source radioModeChanged
attr title "Radio mode, vector"
vector 20 FanetGpsrGrayholeSecure.host[20].wlan[0].radio radioMode:vector ETV
attr interpolationmode sample-hold
attr source radioModeChanged
attr title "Radio mode, vector"
vector 21 FanetGpsrGrayholeSecure.host[21].wlan[0].radio radioMode:vector ETV
attr interpolationmode sample-hold
attr source radioModeChanged
attr title "Radio mode, vector"
vector 22 FanetGpsrGrayholeSecure.host[22].wlan[0].radio radioMode:vector ETV
attr interpolationmode sample-hold
attr source radioModeChanged
attr title "Radio mode, vector"
vector 23 FanetGpsrGrayholeSecure.host[23].wlan[0].radio radioMode:vector ETV
attr interpolationmode sample-hold
attr source radioModeChanged
attr title "Radio mode, vector"
vector 24 FanetGpsrGrayholeSecure.host[24].wlan[0].radio radioMode:vector ETV
attr interpolationmode sample-hold
attr source radioModeChanged
attr title "Radio mode, vector"
vector 25 FanetGpsrGrayholeSecure.host[25].wlan[0].radio radioMode:vector ETV
attr interpolationmode sample-hold
attr source radioModeChanged
attr title "Radio mode, vector"
vector 26 FanetGpsrGrayholeSecure.host[26].wlan[0].radio radioMode:vector ETV
attr interpolationmode sample-hold
attr source radioModeChanged
attr title "Radio mode, vector"
vector 27 FanetGpsrGrayholeSecure.host[27].wlan[0].radio radioMode:vector ETV
attr interpolationmode sample-hold
attr source radioModeChanged
attr title "Radio mode, vector"
vector 28 FanetGpsrGrayholeSecure.host[28].wlan[0].radio radioMode:vector ETV
attr interpolationmode sample-hold
attr source radioModeChanged
attr title "Radio mode, vector"
vector 29 FanetGpsrGrayholeSecure.host[29].wlan[0].radio radioMode:vector ETV
attr interpolationmode sample-hold
attr source radioModeChanged
attr title "Radio mode, vector"
vector 30 FanetGpsrGrayholeSecure.host[0].wlan[0].radio receptionState:vector ETV
attr interpolationmode sample-hold
attr source receptionStateChanged
attr title "Radio reception state, vector"
vector 31 FanetGpsrGrayholeSecure.host[0].wlan[0].radio transmissionState:vector ETV
attr interpolationmode sample-hold
attr source transmissionStateChanged
attr title "Radio transmission state, vector"
vector 32 FanetGpsrGrayholeSecure.host[1].wlan[0].radio receptionState:vector ETV
attr interpolationmode sample-hold
attr source receptionStateChanged
attr title "Radio reception state, vector"
vector 33 FanetGpsrGrayholeSecure.host[1].wlan[0].radio transmissionState:vector ETV
attr interpolationmode sample-hold
attr source transmissionStateChanged
attr title "Radio transmission state, vector"
vector 34 FanetGpsrGrayholeSecure.host[2].wlan[0].radio receptionState:vector ETV
attr interpolationmode sample-hold
attr source receptionStateChanged
attr title "Radio reception state, vector"
vector 35 FanetGpsrGrayholeSecure.host[2].wlan[0].radio transmissionState:vector ETV
attr interpolationmode sample-hold
attr source transmissionStateChanged
attr title "Radio transmission state, vector"
vector 36 FanetGpsrGrayholeSecure.host[3].wlan[0].radio receptionState:vector ETV
attr interpolationmode sample-hold
attr source receptionStateChanged
attr title "Radio reception state, vector"
vector 37 FanetGpsrGrayholeSecure.host[3].wlan[0].radio transmissionState:vector ETV
attr interpolationmode sample-hold
attr source transmissionStateChanged
attr title "Radio transmission state, vector"
vector 38 FanetGpsrGrayholeSecure.host[4].wlan[0].radio receptionState:vector ETV
attr interpolationmode sample-hold
attr source receptionStateChanged
attr title "Radio reception state, vector"
vector 39 FanetGpsrGrayholeSecure.host[4].wlan[0].radio transmissionState:vector ETV
attr interpolationmode sample-hold
attr source transmissionStateChanged
attr title "Radio transmission state, vector"
vector 40 FanetGpsrGrayholeSecure.host[5].wlan[0].radio receptionState:vector ETV
attr interpolationmode sample-hold
attr source receptionStateChanged
attr title "Radio reception state, vector"
vector 41 FanetGpsrGrayholeSecure.host[5].wlan[0].radio transmissionState:vector ETV
attr interpolationmode sample-hold
attr source transmissionStateChanged
attr title "Radio transmission state, vector"
vector 42 FanetGpsrGrayholeSecure.host[6].wlan[0].radio receptionState:vector ETV
attr interpolationmode sample-hold
attr source receptionStateChanged
attr title "Radio reception state, vector"
vector 43 FanetGpsrGrayholeSecure.host[6].wlan[0].radio transmissionState:vector ETV
attr interpolationmode sample-hold
attr source transmissionStateChanged
attr title "Radio transmission state, vector"
vector 44 FanetGpsrGrayholeSecure.host[7].wlan[0].radio receptionState:vector ETV
attr interpolationmode sample-hold
attr source receptionStateChanged
attr title "Radio reception state, vector"
vector 45 FanetGpsrGrayholeSecure.host[7].wlan[0].radio transmissionState:vector ETV
attr interpolationmode sample-hold
attr source transmissionStateChanged
attr title "Radio transmission state, vector"
vector 46 FanetGpsrGrayholeSecure.host[8].wlan[0].radio receptionState:vector ETV
attr interpolationmode sample-hold
attr source receptionStateChanged
attr title "Radio reception state, vector"
vector 47 FanetGpsrGrayholeSecure.host[8].wlan[0].radio transmissionState:vector ETV
attr interpolationmode sample-hold
attr source transmissionStateChanged
attr title "Radio transmission state, vector"
vector 48 FanetGpsrGrayholeSecure.host[9].wlan[0].radio receptionState:vector ETV
attr interpolationmode sample-hold
attr source receptionStateChanged
attr title "Radio reception state, vector"
vector 49 FanetGpsrGrayholeSecure.host[9].wlan[0].radio transmissionState:vector ETV
attr interpolationmode sample-hold
attr source transmissionStateChanged
attr title "Radio transmission state, vector"
vector 50 FanetGpsrGrayholeSecure.host[10].wlan[0].radio receptionState:vector ETV
attr interpolationmode sample-hold
attr source receptionStateChanged
attr title "Radio reception state, vector"
vector 51 FanetGpsrGrayholeSecure.host[10].wlan[0].radio transmissionState:vector ETV
attr interpolationmode sample-hold
attr source transmissionStateChanged
attr title "Radio transmission state, vector"
vector 52 FanetGpsrGrayholeSecure.host[11].wlan[0].radio receptionState:vector ETV
attr interpolationmode sample-hold
attr source receptionStateChanged
attr title "Radio reception state, vector"
vector 53 FanetGpsrGrayholeSecure.host[11].wlan[0].radio transmissionState:vector ETV
attr interpolationmode sample-hold
attr source transmissionStateChanged
attr title "Radio transmission state, vector"
vector 54 FanetGpsrGrayholeSecure.host[12].wlan[0].radio receptionState:vector ETV
attr interpolationmode sample-hold
attr source receptionStateChanged
attr title "Radio reception state, vector"
vector 55 FanetGpsrGrayholeSecure.host[12].wlan[0].radio transmissionState:vector ETV
attr interpolationmode sample-hold
attr source transmissionStateChanged
attr title "Radio transmission state, vector"
vector 56 FanetGpsrGrayholeSecure.host[13].wlan[0].radio receptionState:vector ETV
attr interpolationmode sample-hold
attr source receptionStateChanged
attr title "Radio reception state, vector"
vector 57 FanetGpsrGrayholeSecure.host[13].wlan[0].radio transmissionState:vector ETV
attr interpolationmode sample-hold
attr source transmissionStateChanged
attr title "Radio transmission state, vector"
vector 58 FanetGpsrGrayholeSecure.host[14].wlan[0].radio receptionState:vector ETV
attr interpolationmode sample-hold
attr source receptionStateChanged
attr title "Radio reception state, vector"
vector 59 FanetGpsrGrayholeSecure.host[14].wlan[0].radio transmissionState:vector ETV
attr interpolationmode sample-hold
attr source transmissionStateChanged
attr title "Radio transmission state, vector"
vector 60 FanetGpsrGrayholeSecure.host[15].wlan[0].radio receptionState:vector ETV
attr interpolationmode sample-hold
attr source receptionStateChanged
attr title "Radio reception state, vector"
vector 61 FanetGpsrGrayholeSecure.host[15].wlan[0].radio transmissionState:vector ETV
attr interpolationmode sample-hold
attr source transmissionStateChanged
attr title "Radio transmission state, vector"
vector 62 FanetGpsrGrayholeSecure.host[16].wlan[0].radio receptionState:vector ETV
attr interpolationmode sample-hold
attr source receptionStateChanged
attr title "Radio reception state, vector"
vector 63 FanetGpsrGrayholeSecure.host[16].wlan[0].radio transmissionState:vector ETV
attr interpolationmode sample-hold
attr source transmissionStateChanged
attr title "Radio transmission state, vector"
vector 64 FanetGpsrGrayholeSecure.host[17].wlan[0].radio receptionState:vector ETV
attr interpolationmode sample-hold
attr source receptionStateChanged
attr title "Radio reception state, vector"
vector 65 FanetGpsrGrayholeSecure.host[17].wlan[0].radio transmissionState:vector ETV
attr interpolationmode sample-hold
attr source transmissionStateChanged
attr title "Radio transmission state, vector"
vector 66 FanetGpsrGrayholeSecure.host[18].wlan[0].radio receptionState:vector ETV
attr interpolationmode sample-hold
attr source receptionStateChanged
attr title "Radio reception state, vector"
vector 67 FanetGpsrGrayholeSecure.host[18].wlan[0].radio transmissionState:vector ETV
attr interpolationmode sample-hold
attr source transmissionStateChanged
attr title "Radio transmission state, vector"
vector 68 FanetGpsrGrayholeSecure.host[19].wlan[0].radio receptionState:vector ETV
attr interpolationmode sample-hold
attr source receptionStateChanged
attr title "Radio reception state, vector"
vector 69 FanetGpsrGrayholeSecure.host[19].wlan[0].radio transmissionState:vector ETV
attr interpolationmode sample-hold
attr source transmissionStateChanged
attr title "Radio transmission state, vector"
vector 70 FanetGpsrGrayholeSecure.host[20].wlan[0].radio receptionState:vector ETV
attr interpolationmode sample-hold
attr source receptionStateChanged
attr title "Radio reception state, vector"
vector 71 FanetGpsrGrayholeSecure.host[20].wlan[0].radio transmissionState:vector ETV
attr interpolationmode sample-hold
attr source transmissionStateChanged
attr title "Radio transmission state, vector"
vector 72 FanetGpsrGrayholeSecure.host[21].wlan[0].radio receptionState:vector ETV
attr interpolationmode sample-hold
attr source receptionStateChanged
attr title "Radio reception state, vector"
vector 73 FanetGpsrGrayholeSecure.host[21].wlan[0].radio transmissionState:vector ETV
attr interpolationmode sample-hold
attr source transmissionStateChanged
attr title "Radio transmission state, vector"
vector 74 FanetGpsrGrayholeSecure.host[22].wlan[0].radio receptionState:vector ETV
attr interpolationmode sample-hold
attr source receptionStateChanged
attr title "Radio reception state, vector"
vector 75 FanetGpsrGrayholeSecure.host[22].wlan[0].radio transmissionState:vector ETV
attr interpolationmode sample-hold
attr source transmissionStateChanged
attr title "Radio transmission state, vector"
vector 76 FanetGpsrGrayholeSecure.host[23].wlan[0].radio receptionState:vector ETV
attr interpolationmode sample-hold
attr source receptionStateChanged
attr title "Radio reception state, vector"
vector 77 FanetGpsrGrayholeSecure.host[23].wlan[0].radio transmissionState:vector ETV
attr interpolationmode sample-hold
attr source transmissionStateChanged
attr title "Radio transmission state, vector"
vector 78 FanetGpsrGrayholeSecure.host[24].wlan[0].radio receptionState:vector ETV
attr interpolationmode sample-hold
attr source receptionStateChanged
attr title "Radio reception state, vector"
vector 79 FanetGpsrGrayholeSecure.host[24].wlan[0].radio transmissionState:vector ETV
attr interpolationmode sample-hold
attr source transmissionStateChanged
attr title "Radio transmission state, vector"
vector 80 FanetGpsrGrayholeSecure.host[25].wlan[0].radio receptionState:vector ETV
attr interpolationmode sample-hold
attr source receptionStateChanged
attr title "Radio reception state, vector"
vector 81 FanetGpsrGrayholeSecure.host[25].wlan[0].radio transmissionState:vector ETV
attr interpolationmode sample-hold
attr source transmissionStateChanged
attr title "Radio transmission state, vector"
vector 82 FanetGpsrGrayholeSecure.host[26].wlan[0].radio receptionState:vector ETV
attr interpolationmode sample-hold
attr source receptionStateChanged
attr title "Radio reception state, vector"
vector 83 FanetGpsrGrayholeSecure.host[26].wlan[0].radio transmissionState:vector ETV
attr interpolationmode sample-hold
attr source transmissionStateChanged
attr title "Radio transmission state, vector"
vector 84 FanetGpsrGrayholeSecure.host[27].wlan[0].radio receptionState:vector ETV
attr interpolationmode sample-hold
attr source receptionStateChanged
attr title "Radio reception state, vector"
vector 85 FanetGpsrGrayholeSecure.host[27].wlan[0].radio transmissionState:vector ETV
attr interpolationmode sample-hold
attr source transmissionStateChanged
attr title "Radio transmission state, vector"
vector 86 FanetGpsrGrayholeSecure.host[28].wlan[0].radio receptionState:vector ETV
attr interpolationmode sample-hold
attr source receptionStateChanged
attr title "Radio reception state, vector"
vector 87 FanetGpsrGrayholeSecure.host[28].wlan[0].radio transmissionState:vector ETV
attr interpolationmode sample-hold
attr source transmissionStateChanged
attr title "Radio transmission state, vector"
vector 88 FanetGpsrGrayholeSecure.host[29].wlan[0].radio receptionState:vector ETV
attr interpolationmode sample-hold
attr source receptionStateChanged
attr title "Radio reception state, vector"
vector 89 FanetGpsrGrayholeSecure.host[29].wlan[0].radio transmissionState:vector ETV
attr interpolationmode sample-hold
attr source transmissionStateChanged
attr title "Radio transmission state, vector"
vector 90 FanetGpsrGrayholeSecure.host[14].wlan[0].mac rcvdPkFromHl:vector(packetBytes) ETV
attr interpolationmode none
attr source packetReceivedFromUpper
attr title "packets received from higher layer, vector(packetBytes)"
vector 91 FanetGpsrGrayholeSecure.host[14].wlan[0].mac.queue packetPushed:vector(packetBytes) ETV
attr interpolationmode none
attr title "packet pushed, vector(packetBytes)"
vector 92 FanetGpsrGrayholeSecure.host[14].wlan[0].mac.queue queueLength:vector ETV
attr interpolationmode sample-hold
attr source "count(packetPushed) - count(packetPopped) - count(packetRemoved) - count(packetDropped)"
attr title "queue length, vector"
vector 93 FanetGpsrGrayholeSecure.host[14].wlan[0].mac.queue packetPopped:vector(packetBytes) ETV
attr interpolationmode none
attr title "packet popped, vector(packetBytes)"
vector 94 FanetGpsrGrayholeSecure.host[14].wlan[0].mac.queue queueingTime:vector ETV
attr interpolationmode none
attr source queueingTime(packetPopped)
attr title "queueing times, vector"
attr unit s
vector 95 FanetGpsrGrayholeSecure.host[14].wlan[0].mac sentDownPk:vector(packetBytes) ETV
attr interpolationmode none
attr source packetSentToLower
attr title "packets sent to lower layer, vector(packetBytes)"
vector 96 FanetGpsrGrayholeSecure.host[1].wlan[0].mac rcvdPkFromLl:vector(packetBytes) ETV
attr interpolationmode none
attr source packetReceivedFromLower
attr title "packets received from lower layer, vector(packetBytes)"
vector 97 FanetGpsrGrayholeSecure.host[1].wlan[0].mac passedUpPk:vector(packetBytes) ETV
attr interpolationmode none
attr source packetSentToUpper
attr title "packets passed to higher layer, vector(packetBytes)"
vector 98 FanetGpsrGrayholeSecure.host[22].wlan[0].mac rcvdPkFromLl:vector(packetBytes) ETV
attr interpolationmode none
attr source packetReceivedFromLower
attr title "packets received from lower layer, vector(packetBytes)"
vector 99 FanetGpsrGrayholeSecure.host[22].wlan[0].mac passedUpPk:vector(packetBytes) ETV
attr interpolationmode none
attr source packetSentToUpper
attr title "packets passed to higher layer, vector(packetBytes)"
vector 100 FanetGpsrGrayholeSecure.host[13].wlan[0].mac rcvdPkFromLl:vector(packetBytes) ETV
attr interpolationmode none
attr source packetReceivedFromLower
attr title "packets received from lower layer, vector(packetBytes)"
vector 101 FanetGpsrGrayholeSecure.host[13].wlan[0].mac passedUpPk:vector(packetBytes) ETV
attr interpolationmode none
attr source packetSentToUpper
attr title "packets passed to higher layer, vector(packetBytes)"
vector 102 FanetGpsrGrayholeSecure.host[10].wlan[0].mac rcvdPkFromLl:vector(packetBytes) ETV
attr interpolationmode none
attr source packetReceivedFromLower
attr title "packets received from lower layer, vector(packetBytes)"
vector 103 FanetGpsrGrayholeSecure.host[10].wlan[0].mac passedUpPk:vector(packetBytes) ETV
attr interpolationmode none
attr source packetSentToUpper
attr title "packets passed to higher layer, vector(packetBytes)"
vector 104 FanetGpsrGrayholeSecure.host[27].wlan[0].mac rcvdPkFromLl:vector(packetBytes) ETV
attr interpolationmode none
attr source packetReceivedFromLower
attr title "packets received from lower layer, vector(packetBytes)"
vector 105 FanetGpsrGrayholeSecure.host[27].wlan[0].mac passedUpPk:vector(packetBytes) ETV
attr interpolationmode none
attr source packetSentToUpper
attr title "packets passed to higher layer, vector(packetBytes)"
vector 106 FanetGpsrGrayholeSecure.host[5].wlan[0].mac rcvdPkFromHl:vector(packetBytes) ETV
attr interpolationmode none
attr source packetReceivedFromUpper
attr title "packets received from higher layer, vector(packetBytes)"
vector 107 FanetGpsrGrayholeSecure.host[5].wlan[0].mac.queue packetPushed:vector(packetBytes) ETV
attr interpolationmode none
attr title "packet pushed, vector(packetBytes)"
vector 108 FanetGpsrGrayholeSecure.host[5].wlan[0].mac.queue queueLength:vector ETV
attr interpolationmode sample-hold
attr source "count(packetPushed) - count(packetPopped) - count(packetRemoved) - count(packetDropped)"
attr title "queue length, vector"
vector 109 FanetGpsrGrayholeSecure.host[5].wlan[0].mac.queue packetPopped:vector(packetBytes) ETV
attr interpolationmode none
attr title "packet popped, vector(packetBytes)"
vector 110 FanetGpsrGrayholeSecure.host[5].wlan[0].mac.queue queueingTime:vector ETV
attr interpolationmode none
attr source queueingTime(packetPopped)
attr title "queueing times, vector"
attr unit s
vector 111 FanetGpsrGrayholeSecure.host[5].wlan[0].mac sentDownPk:vector(packetBytes) ETV
attr interpolationmode none
attr source packetSentToLower
attr title "packets sent to lower layer, vector(packetBytes)"
vector 112 FanetGpsrGrayholeSecure.host[18].wlan[0].mac rcvdPkFromLl:vector(packetBytes) ETV
attr interpolationmode none
attr source packetReceivedFromLower
attr title "packets received from lower layer, vector(packetBytes)"
vector 113 FanetGpsrGrayholeSecure.host[18].wlan[0].mac passedUpPk:vector(packetBytes) ETV
attr interpolationmode none
attr source packetSentToUpper
attr title "packets passed to higher layer, vector(packetBytes)"
vector 114 FanetGpsrGrayholeSecure.host[26].wlan[0].mac rcvdPkFromLl:vector(packetBytes) ETV
attr interpolationmode none
attr source packetReceivedFromLower
attr title "packets received from lower layer, vector(packetBytes)"
vector 115 FanetGpsrGrayholeSecure.host[26].wlan[0].mac passedUpPk:vector(packetBytes) ETV
attr interpolationmode none
attr source packetSentToUpper
attr title "packets passed to higher layer, vector(packetBytes)"
vector 116 FanetGpsrGrayholeSecure.host[29].wlan[0].mac rcvdPkFromLl:vector(packetBytes) ETV
attr interpolationmode none
attr source packetReceivedFromLower
attr title "packets received from lower layer, vector(packetBytes)"
vector 117 FanetGpsrGrayholeSecure.host[29].wlan[0].mac passedUpPk:vector(packetBytes) ETV
attr interpolationmode none
attr source packetSentToUpper
attr title "packets passed to higher layer, vector(packetBytes)"
vector 118 FanetGpsrGrayholeSecure.host[24].wlan[0].mac rcvdPkFromLl:vector(packetBytes) ETV
attr interpolationmode none
attr source packetReceivedFromLower
attr title "packets received from lower layer, vector(packetBytes)"
vector 119 FanetGpsrGrayholeSecure.host[24].wlan[0].mac passedUpPk:vector(packetBytes) ETV
attr interpolationmode none
attr source packetSentToUpper
attr title "packets passed to higher layer, vector(packetBytes)"
vector 120 FanetGpsrGrayholeSecure.host[21].wlan[0].mac rcvdPkFromLl:vector(packetBytes) ETV
attr interpolationmode none
attr source packetReceivedFromLower
attr title "packets received from lower layer, vector(packetBytes)"
vector 121 FanetGpsrGrayholeSecure.host[21].wlan[0].mac passedUpPk:vector(packetBytes) ETV
attr interpolationmode none
attr source packetSentToUpper
attr title "packets passed to higher layer, vector(packetBytes)"
vector 122 FanetGpsrGrayholeSecure.host[6].wlan[0].mac rcvdPkFromLl:vector(packetBytes) ETV
attr interpolationmode none
attr source packetReceivedFromLower
attr title "packets received from lower layer, vector(packetBytes)"
vector 123 FanetGpsrGrayholeSecure.host[6].wlan[0].mac passedUpPk:vector(packetBytes) ETV
attr interpolationmode none
attr source packetSentToUpper
attr title "packets passed to higher layer, vector(packetBytes)"
vector 124 FanetGpsrGrayholeSecure.host[11].wlan[0].mac rcvdPkFromLl:vector(packetBytes) ETV
attr interpolationmode none
attr source packetReceivedFromLower
attr title "packets received from lower layer, vector(packetBytes)"
vector 125 FanetGpsrGrayholeSecure.host[11].wlan[0].mac passedUpPk:vector(packetBytes) ETV
attr interpolationmode none
attr source packetSentToUpper
attr title "packets passed to higher layer, vector(packetBytes)"
vector 126 FanetGpsrGrayholeSecure.host[22].wlan[0].mac rcvdPkFromHl:vector(packetBytes) ETV
attr interpolationmode none
attr source packetReceivedFromUpper
attr title "packets received from higher layer, vector(packetBytes)"
vector 127 FanetGpsrGrayholeSecure.host[22].wlan[0].mac.queue packetPushed:vector(packetBytes) ETV
attr interpolationmode none
attr title "packet pushed, vector(packetBytes)"
vector 128 FanetGpsrGrayholeSecure.host[22].wlan[0].mac.queue queueLength:vector ETV
attr interpolationmode sample-hold
attr source "count(packetPushed) - count(packetPopped) - count(packetRemoved) - count(packetDropped)"
attr title "queue length, vector"
vector 129 FanetGpsrGrayholeSecure.host[22].wlan[0].mac.queue packetPopped:vector(packetBytes) ETV
attr interpolationmode none
attr title "packet popped, vector(packetBytes)"
vector 130 FanetGpsrGrayholeSecure.host[22].wlan[0].mac.queue queueingTime:vector ETV
attr interpolationmode none
attr source queueingTime(packetPopped)
attr title "queueing times, vector"
attr unit s
vector 131 FanetGpsrGrayholeSecure.host[22].wlan[0].mac sentDownPk:vector(packetBytes) ETV
attr interpolationmode none
attr source packetSentToLower
attr title "packets sent to lower layer, vector(packetBytes)"
vector 132 FanetGpsrGrayholeSecure.host[9].wlan[0].mac rcvdPkFromLl:vector(packetBytes) ETV
attr interpolationmode none
attr source packetReceivedFromLower
attr title "packets received from lower layer, vector(packetBytes)"
vector 133 FanetGpsrGrayholeSecure.host[9].wlan[0].mac passedUpPk:vector(packetBytes) ETV
attr interpolationmode none
attr source packetSentToUpper
attr title "packets passed to higher layer, vector(packetBytes)"
vector 134 FanetGpsrGrayholeSecure.host[4].wlan[0].mac rcvdPkFromLl:vector(packetBytes) ETV
attr interpolationmode none
attr source packetReceivedFromLower
attr title "packets received from lower layer, vector(packetBytes)"
vector 135 FanetGpsrGrayholeSecure.host[4].wlan[0].mac passedUpPk:vector(packetBytes) ETV
attr interpolationmode none
attr source packetSentToUpper
attr title "packets passed to higher layer, vector(packetBytes)"
vector 136 FanetGpsrGrayholeSecure.host[28].wlan[0].mac rcvdPkFromLl:vector(packetBytes) ETV
attr interpolationmode none
attr source packetReceivedFromLower
attr title "packets received from lower layer, vector(packetBytes)"
vector 137 FanetGpsrGrayholeSecure.host[28].wlan[0].mac passedUpPk:vector(packetBytes) ETV
attr interpolationmode none
attr source packetSentToUpper
attr title "packets passed to higher layer, vector(packetBytes)"
vector 138 FanetGpsrGrayholeSecure.host[14].wlan[0].mac rcvdPkFromLl:vector(packetBytes) ETV
attr interpolationmode none
attr source packetReceivedFromLower
attr title "packets received from lower layer, vector(packetBytes)"
vector 139 FanetGpsrGrayholeSecure.host[14].wlan[0].mac passedUpPk:vector(packetBytes) ETV
attr interpolationmode none
attr source packetSentToUpper
attr title "packets passed to higher layer, vector(packetBytes)"
vector 140 FanetGpsrGrayholeSecure.host[0].app[0] packetSent:vector(packetBytes) ETV
attr interpolationmode none
attr source packetSent
attr title "packets sent, vector(packetBytes)"
vector 141 FanetGpsrGrayholeSecure.host[0].udp packetSent:vector(packetBytes) ETV
attr interpolationmode none
attr source packetSent
attr title "packets sent, vector(packetBytes)"
vector 142 FanetGpsrGrayholeSecure.host[15].wlan[0].mac rcvdPkFromHl:vector(packetBytes) ETV
attr interpolationmode none
attr source packetReceivedFromUpper
attr title "packets received from higher layer, vector(packetBytes)"
vector 143 FanetGpsrGrayholeSecure.host[15].wlan[0].mac.queue packetPushed:vector(packetBytes) ETV
attr interpolationmode none
attr title "packet pushed, vector(packetBytes)"
vector 144 FanetGpsrGrayholeSecure.host[15].wlan[0].mac.queue queueLength:vector ETV
attr interpolationmode sample-hold
attr source "count(packetPushed) - count(packetPopped) - count(packetRemoved) - count(packetDropped)"
attr title "queue length, vector"
vector 145 FanetGpsrGrayholeSecure.host[15].wlan[0].mac.queue packetPopped:vector(packetBytes) ETV
attr interpolationmode none
attr title "packet popped, vector(packetBytes)"
vector 146 FanetGpsrGrayholeSecure.host[15].wlan[0].mac.queue queueingTime:vector ETV
attr interpolationmode none
attr source queueingTime(packetPopped)
attr title "queueing times, vector"
attr unit s
vector 147 FanetGpsrGrayholeSecure.host[15].wlan[0].mac sentDownPk:vector(packetBytes) ETV
attr interpolationmode none
attr source packetSentToLower
attr title "packets sent to lower layer, vector(packetBytes)"
vector 148 FanetGpsrGrayholeSecure.host[19].wlan[0].mac rcvdPkFromLl:vector(packetBytes) ETV
attr interpolationmode none
attr source packetReceivedFromLower
attr title "packets received from lower layer, vector(packetBytes)"
vector 149 FanetGpsrGrayholeSecure.host[19].wlan[0].mac passedUpPk:vector(packetBytes) ETV
attr interpolationmode none
attr source packetSentToUpper
attr title "packets passed to higher layer, vector(packetBytes)"
vector 150 FanetGpsrGrayholeSecure.host[8].wlan[0].mac rcvdPkFromLl:vector(packetBytes) ETV
attr interpolationmode none
attr source packetReceivedFromLower
attr title "packets received from lower layer, vector(packetBytes)"
vector 151 FanetGpsrGrayholeSecure.host[8].wlan[0].mac passedUpPk:vector(packetBytes) ETV
attr interpolationmode none
attr source packetSentToUpper
attr title "packets passed to higher layer, vector(packetBytes)"
vector 152 FanetGpsrGrayholeSecure.host[17].wlan[0].mac rcvdPkFromLl:vector(packetBytes) ETV
attr interpolationmode none
attr source packetReceivedFromLower
attr title "packets received from lower layer, vector(packetBytes)"
vector 153 FanetGpsrGrayholeSecure.host[17].wlan[0].mac passedUpPk:vector(packetBytes) ETV
attr interpolationmode none
attr source packetSentToUpper
attr title "packets passed to higher layer, vector(packetBytes)"
vector 154 FanetGpsrGrayholeSecure.host[2].wlan[0].mac rcvdPkFromLl:vector(packetBytes) ETV
attr interpolationmode none
attr source packetReceivedFromLower
attr title "packets received from lower layer, vector(packetBytes)"
vector 155 FanetGpsrGrayholeSecure.host[2].wlan[0].mac passedUpPk:vector(packetBytes) ETV
attr interpolationmode none
attr source packetSentToUpper
attr title "packets passed to higher layer, vector(packetBytes)"
vector 156 FanetGpsrGrayholeSecure.host[24].wlan[0].mac rcvdPkFromHl:vector(packetBytes) ETV
attr interpolationmode none
attr source packetReceivedFromUpper
attr title "packets received from higher layer, vector(packetBytes)"
vector 157 FanetGpsrGrayholeSecure.host[24].wlan[0].mac.queue packetPushed:vector(packetBytes) ETV
attr interpolationmode none
attr title "packet pushed, vector(packetBytes)"
vector 158 FanetGpsrGrayholeSecure.host[24].wlan[0].mac.queue queueLength:vector ETV
attr interpolationmode sample-hold
attr source "count(packetPushed) - count(packetPopped) - count(packetRemoved) - count(packetDropped)"
attr title "queue length, vector"
vector 159 FanetGpsrGrayholeSecure.host[24].wlan[0].mac.queue packetPopped:vector(packetBytes) ETV
attr interpolationmode none
attr title "packet popped, vector(packetBytes)"
vector 160 FanetGpsrGrayholeSecure.host[24].wlan[0].mac.queue queueingTime:vector ETV
attr interpolationmode none
attr source queueingTime(packetPopped)
attr title "queueing times, vector"
attr unit s
vector 161 FanetGpsrGrayholeSecure.host[24].wlan[0].mac sentDownPk:vector(packetBytes) ETV
attr interpolationmode none
attr source packetSentToLower
attr title "packets sent to lower layer, vector(packetBytes)"
vector 162 FanetGpsrGrayholeSecure.host[20].wlan[0].mac rcvdPkFromLl:vector(packetBytes) ETV
attr interpolationmode none
attr source packetReceivedFromLower
attr title "packets received from lower layer, vector(packetBytes)"
vector 163 FanetGpsrGrayholeSecure.host[20].wlan[0].mac passedUpPk:vector(packetBytes) ETV
attr interpolationmode none
attr source packetSentToUpper
attr title "packets passed to higher layer, vector(packetBytes)"
vector 164 FanetGpsrGrayholeSecure.host[5].wlan[0].mac rcvdPkFromLl:vector(packetBytes) ETV
attr interpolationmode none
attr source packetReceivedFromLower
attr title "packets received from lower layer, vector(packetBytes)"
vector 165 FanetGpsrGrayholeSecure.host[5].wlan[0].mac passedUpPk:vector(packetBytes) ETV
attr interpolationmode none
attr source packetSentToUpper
attr title "packets passed to higher layer, vector(packetBytes)"
vector 166 FanetGpsrGrayholeSecure.host[0].wlan[0].mac rcvdPkFromHl:vector(packetBytes) ETV
attr interpolationmode none
attr source packetReceivedFromUpper
attr title "packets received from higher layer, vector(packetBytes)"
vector 167 FanetGpsrGrayholeSecure.host[0].wlan[0].mac.queue packetPushed:vector(packetBytes) ETV
attr interpolationmode none
attr title "packet pushed, vector(packetBytes)"
vector 168 FanetGpsrGrayholeSecure.host[0].wlan[0].mac.queue queueLength:vector ETV
attr interpolationmode sample-hold
attr source "count(packetPushed) - count(packetPopped) - count(packetRemoved) - count(packetDropped)"
attr title "queue length, vector"
vector 169 FanetGpsrGrayholeSecure.host[0].wlan[0].mac.queue packetPopped:vector(packetBytes) ETV
attr interpolationmode none
attr title "packet popped, vector(packetBytes)"
vector 170 FanetGpsrGrayholeSecure.host[0].wlan[0].mac.queue queueingTime:vector ETV
attr interpolationmode none
attr source queueingTime(packetPopped)
attr title "queueing times, vector"
attr unit s
vector 171 FanetGpsrGrayholeSecure.host[0].wlan[0].mac sentDownPk:vector(packetBytes) ETV
attr interpolationmode none
attr source packetSentToLower
attr title "packets sent to lower layer, vector(packetBytes)"
vector 172 FanetGpsrGrayholeSecure.host[7].wlan[0].mac rcvdPkFromLl:vector(packetBytes) ETV
attr interpolationmode none
attr source packetReceivedFromLower
attr title "packets received from lower layer, vector(packetBytes)"
vector 173 FanetGpsrGrayholeSecure.host[7].wlan[0].mac passedUpPk:vector(packetBytes) ETV
attr interpolationmode none
attr source packetSentToUpper
attr title "packets passed to higher layer, vector(packetBytes)"
vector 174 FanetGpsrGrayholeSecure.host[3].wlan[0].mac rcvdPkFromLl:vector(packetBytes) ETV
attr interpolationmode none
attr source packetReceivedFromLower
attr title "packets received from lower layer, vector(packetBytes)"
vector 175 FanetGpsrGrayholeSecure.host[3].wlan[0].mac passedUpPk:vector(packetBytes) ETV
attr interpolationmode none
attr source packetSentToUpper
attr title "packets passed to higher layer, vector(packetBytes)"
vector 176 FanetGpsrGrayholeSecure.host[19].wlan[0].mac rcvdPkFromHl:vector(packetBytes) ETV
attr interpolationmode none
attr source packetReceivedFromUpper
attr title "packets received from higher layer, vector(packetBytes)"
vector 177 FanetGpsrGrayholeSecure.host[19].wlan[0].mac.queue packetPushed:vector(packetBytes) ETV
attr interpolationmode none
attr title "packet pushed, vector(packetBytes)"
vector 178 FanetGpsrGrayholeSecure.host[19].wlan[0].mac.queue queueLength:vector ETV
attr interpolationmode sample-hold
attr source "count(packetPushed) - count(packetPopped) - count(packetRemoved) - count(packetDropped)"
attr title "queue length, vector"
vector 179 FanetGpsrGrayholeSecure.host[19].wlan[0].mac.queue packetPopped:vector(packetBytes) ETV
attr interpolationmode none
attr title "packet popped, vector(packetBytes)"
vector 180 FanetGpsrGrayholeSecure.host[19].wlan[0].mac.queue queueingTime:vector ETV
attr interpolationmode none
attr source queueingTime(packetPopped)
attr title "queueing times, vector"
attr unit s
vector 181 FanetGpsrGrayholeSecure.host[19].wlan[0].mac sentDownPk:vector(packetBytes) ETV
attr interpolationmode none
attr source packetSentToLower
attr title "packets sent to lower layer, vector(packetBytes)"
vector 182 FanetGpsrGrayholeSecure.host[15].wlan[0].mac rcvdPkFromLl:vector(packetBytes) ETV
attr interpolationmode none
attr source packetReceivedFromLower
attr title "packets received from lower layer, vector(packetBytes)"
vector 183 FanetGpsrGrayholeSecure.host[15].wlan[0].mac passedUpPk:vector(packetBytes) ETV
attr interpolationmode none
attr source packetSentToUpper
attr title "packets passed to higher layer, vector(packetBytes)"
vector 184 FanetGpsrGrayholeSecure.host[18].wlan[0].mac rcvdPkFromHl:vector(packetBytes) ETV
attr interpolationmode none
attr source packetReceivedFromUpper
attr title "packets received from higher layer, vector(packetBytes)"
vector 185 FanetGpsrGrayholeSecure.host[18].wlan[0].mac.queue packetPushed:vector(packetBytes) ETV
attr interpolationmode none
attr title "packet pushed, vector(packetBytes)"
vector 186 FanetGpsrGrayholeSecure.host[18].wlan[0].mac.queue queueLength:vector ETV
attr interpolationmode sample-hold
attr source "count(packetPushed) - count(packetPopped) - count(packetRemoved) - count(packetDropped)"
attr title "queue length, vector"
vector 187 FanetGpsrGrayholeSecure.host[18].wlan[0].mac.queue packetPopped:vector(packetBytes) ETV
attr interpolationmode none
attr title "packet popped, vector(packetBytes)"
vector 188 FanetGpsrGrayholeSecure.host[18].wlan[0].mac.queue queueingTime:vector ETV
attr interpolationmode none
attr source queueingTime(packetPopped)
attr title "queueing times, vector"
attr unit s
vector 189 FanetGpsrGrayholeSecure.host[18].wlan[0].mac sentDownPk:vector(packetBytes) ETV
attr interpolationmode none
attr source packetSentToLower
attr title "packets sent to lower layer, vector(packetBytes)"
vector 190 FanetGpsrGrayholeSecure.host[9].wlan[0].mac rcvdPkFromHl:vector(packetBytes) ETV
attr interpolationmode none
attr source packetReceivedFromUpper
attr title "packets received from higher layer, vector(packetBytes)"
vector 191 FanetGpsrGrayholeSecure.host[9].wlan[0].mac.queue packetPushed:vector(packetBytes) ETV
attr interpolationmode none
attr title "packet pushed, vector(packetBytes)"
vector 192 FanetGpsrGrayholeSecure.host[9].wlan[0].mac.queue queueLength:vector ETV
attr interpolationmode sample-hold
attr source "count(packetPushed) - count(packetPopped) - count(packetRemoved) - count(packetDropped)"
attr title "queue length, vector"
vector 193 FanetGpsrGrayholeSecure.host[9].wlan[0].mac.queue packetPopped:vector(packetBytes) ETV
attr interpolationmode none
attr title "packet popped, vector(packetBytes)"
vector 194 FanetGpsrGrayholeSecure.host[9].wlan[0].mac.queue queueingTime:vector ETV
attr interpolationmode none
attr source queueingTime(packetPopped)
attr title "queueing times, vector"
attr unit s
vector 195 FanetGpsrGrayholeSecure.host[9].wlan[0].mac sentDownPk:vector(packetBytes) ETV
attr interpolationmode none
attr source packetSentToLower
attr title "packets sent to lower layer, vector(packetBytes)"
vector 196 FanetGpsrGrayholeSecure.host[16].wlan[0].mac rcvdPkFromLl:vector(packetBytes) ETV
attr interpolationmode none
attr source packetReceivedFromLower
attr title "packets received from lower layer, vector(packetBytes)"
vector 197 FanetGpsrGrayholeSecure.host[16].wlan[0].mac passedUpPk:vector(packetBytes) ETV
attr interpolationmode none
attr source packetSentToUpper
attr title "packets passed to higher layer, vector(packetBytes)"
vector 198 FanetGpsrGrayholeSecure.host[25].wlan[0].mac rcvdPkFromLl:vector(packetBytes) ETV
attr interpolationmode none
attr source packetReceivedFromLower
attr title "packets received from lower layer, vector(packetBytes)"
vector 199 FanetGpsrGrayholeSecure.host[25].wlan[0].mac passedUpPk:vector(packetBytes) ETV
attr interpolationmode none
attr source packetSentToUpper
attr title "packets passed to higher layer, vector(packetBytes)"
vector 200 FanetGpsrGrayholeSecure.host[10].wlan[0].mac rcvdPkFromHl:vector(packetBytes) ETV
attr interpolationmode none
attr source packetReceivedFromUpper
attr title "packets received from higher layer, vector(packetBytes)"
vector 201 FanetGpsrGrayholeSecure.host[10].wlan[0].mac.queue packetPushed:vector(packetBytes) ETV
attr interpolationmode none
attr title "packet pushed, vector(packetBytes)"
vector 202 FanetGpsrGrayholeSecure.host[10].wlan[0].mac.queue queueLength:vector ETV
attr interpolationmode sample-hold
attr source "count(packetPushed) - count(packetPopped) - count(packetRemoved) - count(packetDropped)"
attr title "queue length, vector"
vector 203 FanetGpsrGrayholeSecure.host[10].wlan[0].mac.queue packetPopped:vector(packetBytes) ETV
attr interpolationmode none
attr title "packet popped, vector(packetBytes)"
vector 204 FanetGpsrGrayholeSecure.host[10].wlan[0].mac.queue queueingTime:vector ETV
attr interpolationmode none
attr source queueingTime(packetPopped)
attr title "queueing times, vector"
attr unit s
vector 205 FanetGpsrGrayholeSecure.host[10].wlan[0].mac sentDownPk:vector(packetBytes) ETV
attr interpolationmode none
attr source packetSentToLower
attr title "packets sent to lower layer, vector(packetBytes)"
vector 206 FanetGpsrGrayholeSecure.host[3].wlan[0].mac rcvdPkFromHl:vector(packetBytes) ETV
attr interpolationmode none
attr source packetReceivedFromUpper
attr title "packets received from higher layer, vector(packetBytes)"
vector 207 FanetGpsrGrayholeSecure.host[3].wlan[0].mac.queue packetPushed:vector(packetBytes) ETV
attr interpolationmode none
attr title "packet pushed, vector(packetBytes)"
vector 208 FanetGpsrGrayholeSecure.host[3].wlan[0].mac.queue queueLength:vector ETV
attr interpolationmode sample-hold
attr source "count(packetPushed) - count(packetPopped) - count(packetRemoved) - count(packetDropped)"
attr title "queue length, vector"
vector 209 FanetGpsrGrayholeSecure.host[3].wlan[0].mac.queue packetPopped:vector(packetBytes) ETV
attr interpolationmode none
attr title "packet popped, vector(packetBytes)"
vector 210 FanetGpsrGrayholeSecure.host[3].wlan[0].mac.queue queueingTime:vector ETV
attr interpolationmode none
attr source queueingTime(packetPopped)
attr title "queueing times, vector"
attr unit s
vector 211 FanetGpsrGrayholeSecure.host[3].wlan[0].mac sentDownPk:vector(packetBytes) ETV
attr interpolationmode none
attr source packetSentToLower
attr title "packets sent to lower layer, vector(packetBytes)"
vector 212 FanetGpsrGrayholeSecure.host[0].wlan[0].mac rcvdPkFromLl:vector(packetBytes) ETV
attr interpolationmode none
attr source packetReceivedFromLower
attr title "packets received from lower layer, vector(packetBytes)"
vector 213 FanetGpsrGrayholeSecure.host[0].wlan[0].mac passedUpPk:vector(packetBytes) ETV
attr interpolationmode none
attr source packetSentToUpper
attr title "packets passed to higher layer, vector(packetBytes)"
vector 214 FanetGpsrGrayholeSecure.host[23].wlan[0].mac rcvdPkFromHl:vector(packetBytes) ETV
attr interpolationmode none
attr source packetReceivedFromUpper
attr title "packets received from higher layer, vector(packetBytes)"
vector 215 FanetGpsrGrayholeSecure.host[23].wlan[0].mac.queue packetPushed:vector(packetBytes) ETV
attr interpolationmode none
attr title "packet pushed, vector(packetBytes)"
vector 216 FanetGpsrGrayholeSecure.host[23].wlan[0].mac.queue queueLength:vector ETV
attr interpolationmode sample-hold
attr source "count(packetPushed) - count(packetPopped) - count(packetRemoved) - count(packetDropped)"
attr title "queue length, vector"
vector 217 FanetGpsrGrayholeSecure.host[23].wlan[0].mac.queue packetPopped:vector(packetBytes) ETV
attr interpolationmode none
attr title "packet popped, vector(packetBytes)"
vector 218 FanetGpsrGrayholeSecure.host[23].wlan[0].mac.queue queueingTime:vector ETV
attr interpolationmode none
attr source queueingTime(packetPopped)
attr title "queueing times, vector"
attr unit s
vector 219 FanetGpsrGrayholeSecure.host[23].wlan[0].mac sentDownPk:vector(packetBytes) ETV
attr interpolationmode none
attr source packetSentToLower
attr title "packets sent to lower layer, vector(packetBytes)"
vector 220 FanetGpsrGrayholeSecure.host[28].wlan[0].mac rcvdPkFromHl:vector(packetBytes) ETV
attr interpolationmode none
attr source packetReceivedFromUpper
attr title "packets received from higher layer, vector(packetBytes)"
vector 221 FanetGpsrGrayholeSecure.host[28].wlan[0].mac.queue packetPushed:vector(packetBytes) ETV
attr interpolationmode none
attr title "packet pushed, vector(packetBytes)"
vector 222 FanetGpsrGrayholeSecure.host[28].wlan[0].mac.queue queueLength:vector ETV
attr interpolationmode sample-hold
attr source "count(packetPushed) - count(packetPopped) - count(packetRemoved) - count(packetDropped)"
attr title "queue length, vector"
vector 223 FanetGpsrGrayholeSecure.host[28].wlan[0].mac.queue packetPopped:vector(packetBytes) ETV
attr interpolationmode none
attr title "packet popped, vector(packetBytes)"
vector 224 FanetGpsrGrayholeSecure.host[28].wlan[0].mac.queue queueingTime:vector ETV
attr interpolationmode none
attr source queueingTime(packetPopped)
attr title "queueing times, vector"
attr unit s
vector 225 FanetGpsrGrayholeSecure.host[28].wlan[0].mac sentDownPk:vector(packetBytes) ETV
attr interpolationmode none
attr source packetSentToLower
attr title "packets sent to lower layer, vector(packetBytes)"
vector 226 FanetGpsrGrayholeSecure.host[1].wlan[0].mac rcvdPkFromHl:vector(packetBytes) ETV
attr interpolationmode none
attr source packetReceivedFromUpper
attr title "packets received from higher layer, vector(packetBytes)"
vector 227 FanetGpsrGrayholeSecure.host[1].wlan[0].mac.queue packetPushed:vector(packetBytes) ETV
attr interpolationmode none
attr title "packet pushed, vector(packetBytes)"
vector 228 FanetGpsrGrayholeSecure.host[1].wlan[0].mac.queue queueLength:vector ETV
attr interpolationmode sample-hold
attr source "count(packetPushed) - count(packetPopped) - count(packetRemoved) - count(packetDropped)"
attr title "queue length, vector"
vector 229 FanetGpsrGrayholeSecure.host[1].wlan[0].mac.queue packetPopped:vector(packetBytes) ETV
attr interpolationmode none
attr title "packet popped, vector(packetBytes)"
vector 230 FanetGpsrGrayholeSecure.host[1].wlan[0].mac.queue queueingTime:vector ETV
attr interpolationmode none
attr source queueingTime(packetPopped)
attr title "queueing times, vector"
attr unit s
vector 231 FanetGpsrGrayholeSecure.host[1].wlan[0].mac sentDownPk:vector(packetBytes) ETV
attr interpolationmode none
attr source packetSentToLower
attr title "packets sent to lower layer, vector(packetBytes)"
vector 232 FanetGpsrGrayholeSecure.host[23].wlan[0].mac rcvdPkFromLl:vector(packetBytes) ETV
attr interpolationmode none
attr source packetReceivedFromLower
attr title "packets received from lower layer, vector(packetBytes)"
vector 233 FanetGpsrGrayholeSecure.host[23].wlan[0].mac passedUpPk:vector(packetBytes) ETV
attr interpolationmode none
attr source packetSentToUpper
attr title "packets passed to higher layer, vector(packetBytes)"
vector 234 FanetGpsrGrayholeSecure.host[4].wlan[0].mac rcvdPkFromHl:vector(packetBytes) ETV
attr interpolationmode none
attr source packetReceivedFromUpper
attr title "packets received from higher layer, vector(packetBytes)"
vector 235 FanetGpsrGrayholeSecure.host[4].wlan[0].mac.queue packetPushed:vector(packetBytes) ETV
attr interpolationmode none
attr title "packet pushed, vector(packetBytes)"
vector 236 FanetGpsrGrayholeSecure.host[4].wlan[0].mac.queue queueLength:vector ETV
attr interpolationmode sample-hold
attr source "count(packetPushed) - count(packetPopped) - count(packetRemoved) - count(packetDropped)"
attr title "queue length, vector"
vector 237 FanetGpsrGrayholeSecure.host[4].wlan[0].mac.queue packetPopped:vector(packetBytes) ETV
attr interpolationmode none
attr title "packet popped, vector(packetBytes)"
vector 238 FanetGpsrGrayholeSecure.host[4].wlan[0].mac.queue queueingTime:vector ETV
attr interpolationmode none
attr source queueingTime(packetPopped)
attr title "queueing times, vector"
attr unit s
vector 239 FanetGpsrGrayholeSecure.host[4].wlan[0].mac sentDownPk:vector(packetBytes) ETV
attr interpolationmode none
attr source packetSentToLower
attr title "packets sent to lower layer, vector(packetBytes)"
vector 240 FanetGpsrGrayholeSecure.host[20].wlan[0].mac rcvdPkFromHl:vector(packetBytes) ETV
attr interpolationmode none
attr source packetReceivedFromUpper
attr title "packets received from higher layer, vector(packetBytes)"
vector 241 FanetGpsrGrayholeSecure.host[20].wlan[0].mac.queue packetPushed:vector(packetBytes) ETV
attr interpolationmode none
attr title "packet pushed, vector(packetBytes)"
vector 242 FanetGpsrGrayholeSecure.host[20].wlan[0].mac.queue queueLength:vector ETV
attr interpolationmode sample-hold
attr source "count(packetPushed) - count(packetPopped) - count(packetRemoved) - count(packetDropped)"
attr title "queue length, vector"
vector 243 FanetGpsrGrayholeSecure.host[20].wlan[0].mac.queue packetPopped:vector(packetBytes) ETV
attr interpolationmode none
attr title "packet popped, vector(packetBytes)"
vector 244 FanetGpsrGrayholeSecure.host[20].wlan[0].mac.queue queueingTime:vector ETV
attr interpolationmode none
attr source queueingTime(packetPopped)
attr title "queueing times, vector"
attr unit s
vector 245 FanetGpsrGrayholeSecure.host[20].wlan[0].mac sentDownPk:vector(packetBytes) ETV
attr interpolationmode none
attr source packetSentToLower
attr title "packets sent to lower layer, vector(packetBytes)"
vector 246 FanetGpsrGrayholeSecure.host[8].wlan[0].mac rcvdPkFromHl:vector(packetBytes) ETV
attr interpolationmode none
attr source packetReceivedFromUpper
attr title "packets received from higher layer, vector(packetBytes)"
vector 247 FanetGpsrGrayholeSecure.host[8].wlan[0].mac.queue packetPushed:vector(packetBytes) ETV
attr interpolationmode none
attr title "packet pushed, vector(packetBytes)"
vector 248 FanetGpsrGrayholeSecure.host[8].wlan[0].mac.queue queueLength:vector ETV
attr interpolationmode sample-hold
attr source "count(packetPushed) - count(packetPopped) - count(packetRemoved) - count(packetDropped)"
attr title "queue length, vector"
vector 249 FanetGpsrGrayholeSecure.host[8].wlan[0].mac.queue packetPopped:vector(packetBytes) ETV
attr interpolationmode none
attr title "packet popped, vector(packetBytes)"
vector 250 FanetGpsrGrayholeSecure.host[8].wlan[0].mac.queue queueingTime:vector ETV
attr interpolationmode none
attr source queueingTime(packetPopped)
attr title "queueing times, vector"
attr unit s
vector 251 FanetGpsrGrayholeSecure.host[8].wlan[0].mac sentDownPk:vector(packetBytes) ETV
attr interpolationmode none
attr source packetSentToLower
attr title "packets sent to lower layer, vector(packetBytes)"
vector 252 FanetGpsrGrayholeSecure.host[27].wlan[0].mac rcvdPkFromHl:vector(packetBytes) ETV
attr interpolationmode none
attr source packetReceivedFromUpper
attr title "packets received from higher layer, vector(packetBytes)"
vector 253 FanetGpsrGrayholeSecure.host[27].wlan[0].mac.queue packetPushed:vector(packetBytes) ETV
attr interpolationmode none
attr title "packet pushed, vector(packetBytes)"
vector 254 FanetGpsrGrayholeSecure.host[27].wlan[0].mac.queue queueLength:vector ETV
attr interpolationmode sample-hold
attr source "count(packetPushed) - count(packetPopped) - count(packetRemoved) - count(packetDropped)"
attr title "queue length, vector"
vector 255 FanetGpsrGrayholeSecure.host[27].wlan[0].mac.queue packetPopped:vector(packetBytes) ETV
attr interpolationmode none
attr title "packet popped, vector(packetBytes)"
vector 256 FanetGpsrGrayholeSecure.host[27].wlan[0].mac.queue queueingTime:vector ETV
attr interpolationmode none
attr source queueingTime(packetPopped)
attr title "queueing times, vector"
attr unit s
vector 257 FanetGpsrGrayholeSecure.host[27].wlan[0].mac sentDownPk:vector(packetBytes) ETV
attr interpolationmode none
attr source packetSentToLower
attr title "packets sent to lower layer, vector(packetBytes)"
vector 258 FanetGpsrGrayholeSecure.host[13].wlan[0].mac rcvdPkFromHl:vector(packetBytes) ETV
attr interpolationmode none
attr source packetReceivedFromUpper
attr title "packets received from higher layer, vector(packetBytes)"
vector 259 FanetGpsrGrayholeSecure.host[13].wlan[0].mac.queue packetPushed:vector(packetBytes) ETV
attr interpolationmode none
attr title "packet pushed, vector(packetBytes)"
vector 260 FanetGpsrGrayholeSecure.host[13].wlan[0].mac.queue queueLength:vector ETV
attr interpolationmode sample-hold
attr source "count(packetPushed) - count(packetPopped) - count(packetRemoved) - count(packetDropped)"
attr title "queue length, vector"
vector 261 FanetGpsrGrayholeSecure.host[13].wlan[0].mac.queue packetPopped:vector(packetBytes) ETV
attr interpolationmode none
attr title "packet popped, vector(packetBytes)"
vector 262 FanetGpsrGrayholeSecure.host[13].wlan[0].mac.queue queueingTime:vector ETV
attr interpolationmode none
attr source queueingTime(packetPopped)
attr title "queueing times, vector"
attr unit s
vector 263 FanetGpsrGrayholeSecure.host[13].wlan[0].mac sentDownPk:vector(packetBytes) ETV
attr interpolationmode none
attr source packetSentToLower
attr title "packets sent to lower layer, vector(packetBytes)"
vector 264 FanetGpsrGrayholeSecure.host[29].wlan[0].mac rcvdPkFromHl:vector(packetBytes) ETV
attr interpolationmode none
attr source packetReceivedFromUpper
attr title "packets received from higher layer, vector(packetBytes)"
vector 265 FanetGpsrGrayholeSecure.host[29].wlan[0].mac.queue packetPushed:vector(packetBytes) ETV
attr interpolationmode none
attr title "packet pushed, vector(packetBytes)"
vector 266 FanetGpsrGrayholeSecure.host[29].wlan[0].mac.queue queueLength:vector ETV
attr interpolationmode sample-hold
attr source "count(packetPushed) - count(packetPopped) - count(packetRemoved) - count(packetDropped)"
attr title "queue length, vector"
vector 267 FanetGpsrGrayholeSecure.host[29].wlan[0].mac.queue packetPopped:vector(packetBytes) ETV
attr interpolationmode none
attr title "packet popped, vector(packetBytes)"
vector 268 FanetGpsrGrayholeSecure.host[29].wlan[0].mac.queue queueingTime:vector ETV
attr interpolationmode none
attr source queueingTime(packetPopped)
attr title "queueing times, vector"
attr unit s
vector 269 FanetGpsrGrayholeSecure.host[29].wlan[0].mac sentDownPk:vector(packetBytes) ETV
attr interpolationmode none
attr source packetSentToLower
attr title "packets sent to lower layer, vector(packetBytes)"
vector 270 FanetGpsrGrayholeSecure.host[16].wlan[0].mac rcvdPkFromHl:vector(packetBytes) ETV
attr interpolationmode none
attr source packetReceivedFromUpper
attr title "packets received from higher layer, vector(packetBytes)"
vector 271 FanetGpsrGrayholeSecure.host[16].wlan[0].mac.queue packetPushed:vector(packetBytes) ETV
attr interpolationmode none
attr title "packet pushed, vector(packetBytes)"
vector 272 FanetGpsrGrayholeSecure.host[16].wlan[0].mac.queue queueLength:vector ETV
attr interpolationmode sample-hold
attr source "count(packetPushed) - count(packetPopped) - count(packetRemoved) - count(packetDropped)"
attr title "queue length, vector"
vector 273 FanetGpsrGrayholeSecure.host[16].wlan[0].mac.queue packetPopped:vector(packetBytes) ETV
attr interpolationmode none
attr title "packet popped, vector(packetBytes)"
vector 274 FanetGpsrGrayholeSecure.host[16].wlan[0].mac.queue queueingTime:vector ETV
attr interpolationmode none
attr source queueingTime(packetPopped)
attr title "queueing times, vector"
attr unit s
vector 275 FanetGpsrGrayholeSecure.host[16].wlan[0].mac sentDownPk:vector(packetBytes) ETV
attr interpolationmode none
attr source packetSentToLower
attr title "packets sent to lower layer, vector(packetBytes)"
vector 276 FanetGpsrGrayholeSecure.host[17].wlan[0].mac rcvdPkFromHl:vector(packetBytes) ETV
attr interpolationmode none
attr source packetReceivedFromUpper
attr title "packets received from higher layer, vector(packetBytes)"
vector 277 FanetGpsrGrayholeSecure.host[17].wlan[0].mac.queue packetPushed:vector(packetBytes) ETV
attr interpolationmode none
attr title "packet pushed, vector(packetBytes)"
vector 278 FanetGpsrGrayholeSecure.host[17].wlan[0].mac.queue queueLength:vector ETV
attr interpolationmode sample-hold
attr source "count(packetPushed) - count(packetPopped) - count(packetRemoved) - count(packetDropped)"
attr title "queue length, vector"
vector 279 FanetGpsrGrayholeSecure.host[17].wlan[0].mac.queue packetPopped:vector(packetBytes) ETV
attr interpolationmode none
attr title "packet popped, vector(packetBytes)"
vector 280 FanetGpsrGrayholeSecure.host[17].wlan[0].mac.queue queueingTime:vector ETV
attr interpolationmode none
attr source queueingTime(packetPopped)
attr title "queueing times, vector"
attr unit s
vector 281 FanetGpsrGrayholeSecure.host[17].wlan[0].mac sentDownPk:vector(packetBytes) ETV
attr interpolationmode none
attr source packetSentToLower
attr title "packets sent to lower layer, vector(packetBytes)"
vector 282 FanetGpsrGrayholeSecure.host[12].wlan[0].mac rcvdPkFromLl:vector(packetBytes) ETV
attr interpolationmode none
attr source packetReceivedFromLower
attr title "packets received from lower layer, vector(packetBytes)"
vector 283 FanetGpsrGrayholeSecure.host[12].wlan[0].mac passedUpPk:vector(packetBytes) ETV
attr interpolationmode none
attr source packetSentToUpper
attr title "packets passed to higher layer, vector(packetBytes)"
vector 284 FanetGpsrGrayholeSecure.host[11].wlan[0].mac rcvdPkFromHl:vector(packetBytes) ETV
attr interpolationmode none
attr source packetReceivedFromUpper
attr title "packets received from higher layer, vector(packetBytes)"
vector 285 FanetGpsrGrayholeSecure.host[11].wlan[0].mac.queue packetPushed:vector(packetBytes) ETV
attr interpolationmode none
attr title "packet pushed, vector(packetBytes)"
vector 286 FanetGpsrGrayholeSecure.host[11].wlan[0].mac.queue queueLength:vector ETV
attr interpolationmode sample-hold
attr source "count(packetPushed) - count(packetPopped) - count(packetRemoved) - count(packetDropped)"
attr title "queue length, vector"
vector 287 FanetGpsrGrayholeSecure.host[11].wlan[0].mac.queue packetPopped:vector(packetBytes) ETV
attr interpolationmode none
attr title "packet popped, vector(packetBytes)"
vector 288 FanetGpsrGrayholeSecure.host[11].wlan[0].mac.queue queueingTime:vector ETV
attr interpolationmode none
attr source queueingTime(packetPopped)
attr title "queueing times, vector"
attr unit s
vector 289 FanetGpsrGrayholeSecure.host[11].wlan[0].mac sentDownPk:vector(packetBytes) ETV
attr interpolationmode none
attr source packetSentToLower
attr title "packets sent to lower layer, vector(packetBytes)"
vector 290 FanetGpsrGrayholeSecure.host[21].wlan[0].mac rcvdPkFromHl:vector(packetBytes) ETV
attr interpolationmode none
attr source packetReceivedFromUpper
attr title "packets received from higher layer, vector(packetBytes)"
vector 291 FanetGpsrGrayholeSecure.host[21].wlan[0].mac.queue packetPushed:vector(packetBytes) ETV
attr interpolationmode none
attr title "packet pushed, vector(packetBytes)"
vector 292 FanetGpsrGrayholeSecure.host[21].wlan[0].mac.queue queueLength:vector ETV
attr interpolationmode sample-hold
attr source "count(packetPushed) - count(packetPopped) - count(packetRemoved) - count(packetDropped)"
attr title "queue length, vector"
vector 293 FanetGpsrGrayholeSecure.host[21].wlan[0].mac.queue packetPopped:vector(packetBytes) ETV
attr interpolationmode none
attr title "packet popped, vector(packetBytes)"
vector 294 FanetGpsrGrayholeSecure.host[21].wlan[0].mac.queue queueingTime:vector ETV
attr interpolationmode none
attr source queueingTime(packetPopped)
attr title "queueing times, vector"
attr unit s
vector 295 FanetGpsrGrayholeSecure.host[21].wlan[0].mac sentDownPk:vector(packetBytes) ETV
attr interpolationmode none
attr source packetSentToLower
attr title "packets sent to lower layer, vector(packetBytes)"
vector 296 FanetGpsrGrayholeSecure.host[25].wlan[0].mac rcvdPkFromHl:vector(packetBytes) ETV
attr interpolationmode none
attr source packetReceivedFromUpper
attr title "packets received from higher layer, vector(packetBytes)"
vector 297 FanetGpsrGrayholeSecure.host[25].wlan[0].mac.queue packetPushed:vector(packetBytes) ETV
attr interpolationmode none
attr title "packet pushed, vector(packetBytes)"
vector 298 FanetGpsrGrayholeSecure.host[25].wlan[0].mac.queue queueLength:vector ETV
attr interpolationmode sample-hold
attr source "count(packetPushed) - count(packetPopped) - count(packetRemoved) - count(packetDropped)"
attr title "queue length, vector"
vector 299 FanetGpsrGrayholeSecure.host[25].wlan[0].mac.queue packetPopped:vector(packetBytes) ETV
attr interpolationmode none
attr title "packet popped, vector(packetBytes)"
vector 300 FanetGpsrGrayholeSecure.host[25].wlan[0].mac.queue queueingTime:vector ETV
attr interpolationmode none
attr source queueingTime(packetPopped)
attr title "queueing times, vector"
attr unit s
vector 301 FanetGpsrGrayholeSecure.host[25].wlan[0].mac sentDownPk:vector(packetBytes) ETV
attr interpolationmode none
attr source packetSentToLower
attr title "packets sent to lower layer, vector(packetBytes)"
vector 302 FanetGpsrGrayholeSecure.host[6].wlan[0].mac rcvdPkFromHl:vector(packetBytes) ETV
attr interpolationmode none
attr source packetReceivedFromUpper
attr title "packets received from higher layer, vector(packetBytes)"
vector 303 FanetGpsrGrayholeSecure.host[6].wlan[0].mac.queue packetPushed:vector(packetBytes) ETV
attr interpolationmode none
attr title "packet pushed, vector(packetBytes)"
vector 304 FanetGpsrGrayholeSecure.host[6].wlan[0].mac.queue queueLength:vector ETV
attr interpolationmode sample-hold
attr source "count(packetPushed) - count(packetPopped) - count(packetRemoved) - count(packetDropped)"
attr title "queue length, vector"
vector 305 FanetGpsrGrayholeSecure.host[6].wlan[0].mac.queue packetPopped:vector(packetBytes) ETV
attr interpolationmode none
attr title "packet popped, vector(packetBytes)"
vector 306 FanetGpsrGrayholeSecure.host[6].wlan[0].mac.queue queueingTime:vector ETV
attr interpolationmode none
attr source queueingTime(packetPopped)
attr title "queueing times, vector"
attr unit s
vector 307 FanetGpsrGrayholeSecure.host[6].wlan[0].mac sentDownPk:vector(packetBytes) ETV
attr interpolationmode none
attr source packetSentToLower
attr title "packets sent to lower layer, vector(packetBytes)"
vector 308 FanetGpsrGrayholeSecure.host[2].wlan[0].mac rcvdPkFromHl:vector(packetBytes) ETV
attr interpolationmode none
attr source packetReceivedFromUpper
attr title "packets received from higher layer, vector(packetBytes)"
vector 309 FanetGpsrGrayholeSecure.host[2].wlan[0].mac.queue packetPushed:vector(packetBytes) ETV
attr interpolationmode none
attr title "packet pushed, vector(packetBytes)"
vector 310 FanetGpsrGrayholeSecure.host[2].wlan[0].mac.queue queueLength:vector ETV
attr interpolationmode sample-hold
attr source "count(packetPushed) - count(packetPopped) - count(packetRemoved) - count(packetDropped)"
attr title "queue length, vector"
vector 311 FanetGpsrGrayholeSecure.host[2].wlan[0].mac.queue packetPopped:vector(packetBytes) ETV
attr interpolationmode none
attr title "packet popped, vector(packetBytes)"
vector 312 FanetGpsrGrayholeSecure.host[2].wlan[0].mac.queue queueingTime:vector ETV
attr interpolationmode none
attr source queueingTime(packetPopped)
attr title "queueing times, vector"
attr unit s
vector 313 FanetGpsrGrayholeSecure.host[2].wlan[0].mac sentDownPk:vector(packetBytes) ETV
attr interpolationmode none
attr source packetSentToLower
attr title "packets sent to lower layer, vector(packetBytes)"
vector 314 FanetGpsrGrayholeSecure.host[7].wlan[0].mac packetDropNotAddressedToUs:vector(packetBytes) ETV
attr interpolationmode none
attr source packetDropReasonIsNotAddressedToUs(packetDropped)
attr title "packet drop: not addressed to us, vector(packetBytes)"
vector 315 FanetGpsrGrayholeSecure.host[3].wlan[0].mac packetDropNotAddressedToUs:vector(packetBytes) ETV
attr interpolationmode none
attr source packetDropReasonIsNotAddressedToUs(packetDropped)
attr title "packet drop: not addressed to us, vector(packetBytes)"
vector 316 FanetGpsrGrayholeSecure.host[1].wlan[0].mac packetDropNotAddressedToUs:vector(packetBytes) ETV
attr interpolationmode none
attr source packetDropReasonIsNotAddressedToUs(packetDropped)
attr title "packet drop: not addressed to us, vector(packetBytes)"
vector 317 FanetGpsrGrayholeSecure.host[6].wlan[0].mac packetDropNotAddressedToUs:vector(packetBytes) ETV
attr interpolationmode none
attr source packetDropReasonIsNotAddressedToUs(packetDropped)
attr title "packet drop: not addressed to us, vector(packetBytes)"
vector 318 FanetGpsrGrayholeSecure.host[29].wlan[0].mac packetDropNotAddressedToUs:vector(packetBytes) ETV
attr interpolationmode none
attr source packetDropReasonIsNotAddressedToUs(packetDropped)
attr title "packet drop: not addressed to us, vector(packetBytes)"
vector 319 FanetGpsrGrayholeSecure.host[16].wlan[0].mac packetDropNotAddressedToUs:vector(packetBytes) ETV
attr interpolationmode none
attr source packetDropReasonIsNotAddressedToUs(packetDropped)
attr title "packet drop: not addressed to us, vector(packetBytes)"
vector 320 FanetGpsrGrayholeSecure.host[0].wlan[0].mac packetDropNotAddressedToUs:vector(packetBytes) ETV
attr interpolationmode none
attr source packetDropReasonIsNotAddressedToUs(packetDropped)
attr title "packet drop: not addressed to us, vector(packetBytes)"
vector 321 FanetGpsrGrayholeSecure.host[18].wlan[0].mac packetDropNotAddressedToUs:vector(packetBytes) ETV
attr interpolationmode none
attr source packetDropReasonIsNotAddressedToUs(packetDropped)
attr title "packet drop: not addressed to us, vector(packetBytes)"
vector 322 FanetGpsrGrayholeSecure.host[20].udp packetReceived:vector(packetBytes) ETV
attr interpolationmode none
attr source packetReceived
attr title "packets received, vector(packetBytes)"
vector 323 FanetGpsrGrayholeSecure.host[20].udp passedUpPk:vector(count) ETV
attr interpolationmode none
attr source packetSentToUpper
attr title "packets passed up, vector(count)"
vector 324 FanetGpsrGrayholeSecure.host[20].app[0] packetReceived:vector(packetBytes) ETV
attr interpolationmode none
attr source packetReceived
attr title "packets received, vector(packetBytes)"
vector 325 FanetGpsrGrayholeSecure.host[20].app[0] throughput:vector ETV
attr source throughput(packetReceived)
attr title "throughput, vector"
attr unit bps
vector 326 FanetGpsrGrayholeSecure.host[20].app[0] endToEndDelay:vector ETV
attr interpolationmode none
attr source dataAge(packetReceived)
attr title "end-to-end delay, vector"
attr unit s
vector 327 FanetGpsrGrayholeSecure.host[20].app[0] rcvdPkSeqNo:vector ETV
attr interpolationmode none
attr source appPkSeqNo(packetReceived)
attr title "received packet sequence number, vector"
vector 328 FanetGpsrGrayholeSecure.host[5].wlan[0].mac packetDropNotAddressedToUs:vector(packetBytes) ETV
attr interpolationmode none
attr source packetDropReasonIsNotAddressedToUs(packetDropped)
attr title "packet drop: not addressed to us, vector(packetBytes)"
vector 329 FanetGpsrGrayholeSecure.host[24].wlan[0].mac packetDropNotAddressedToUs:vector(packetBytes) ETV
attr interpolationmode none
attr source packetDropReasonIsNotAddressedToUs(packetDropped)
attr title "packet drop: not addressed to us, vector(packetBytes)"
vector 330 FanetGpsrGrayholeSecure.host[7].wlan[0].mac rcvdPkFromHl:vector(packetBytes) ETV
attr interpolationmode none
attr source packetReceivedFromUpper
attr title "packets received from higher layer, vector(packetBytes)"
vector 331 FanetGpsrGrayholeSecure.host[7].wlan[0].mac.queue packetPushed:vector(packetBytes) ETV
attr interpolationmode none
attr title "packet pushed, vector(packetBytes)"
vector 332 FanetGpsrGrayholeSecure.host[7].wlan[0].mac.queue queueLength:vector ETV
attr interpolationmode sample-hold
attr source "count(packetPushed) - count(packetPopped) - count(packetRemoved) - count(packetDropped)"
attr title "queue length, vector"
vector 333 FanetGpsrGrayholeSecure.host[7].wlan[0].mac.queue packetPopped:vector(packetBytes) ETV
attr interpolationmode none
attr title "packet popped, vector(packetBytes)"
vector 334 FanetGpsrGrayholeSecure.host[7].wlan[0].mac.queue queueingTime:vector ETV
attr interpolationmode none
attr source queueingTime(packetPopped)
attr title "queueing times, vector"
attr unit s
vector 335 FanetGpsrGrayholeSecure.host[7].wlan[0].mac sentDownPk:vector(packetBytes) ETV
attr interpolationmode none
attr source packetSentToLower
attr title "packets sent to lower layer, vector(packetBytes)"
vector 336 FanetGpsrGrayholeSecure.host[26].wlan[0].mac rcvdPkFromHl:vector(packetBytes) ETV
attr interpolationmode none
attr source packetReceivedFromUpper
attr title "packets received from higher layer, vector(packetBytes)"
vector 337 FanetGpsrGrayholeSecure.host[26].wlan[0].mac.queue packetPushed:vector(packetBytes) ETV
attr interpolationmode none
attr title "packet pushed, vector(packetBytes)"
vector 338 FanetGpsrGrayholeSecure.host[26].wlan[0].mac.queue queueLength:vector ETV
attr interpolationmode sample-hold
attr source "count(packetPushed) - count(packetPopped) - count(packetRemoved) - count(packetDropped)"
attr title "queue length, vector"
vector 339 FanetGpsrGrayholeSecure.host[26].wlan[0].mac.queue packetPopped:vector(packetBytes) ETV
attr interpolationmode none
attr title "packet popped, vector(packetBytes)"
vector 340 FanetGpsrGrayholeSecure.host[26].wlan[0].mac.queue queueingTime:vector ETV
attr interpolationmode none
attr source queueingTime(packetPopped)
attr title "queueing times, vector"
attr unit s
vector 341 FanetGpsrGrayholeSecure.host[26].wlan[0].mac sentDownPk:vector(packetBytes) ETV
attr interpolationmode none
attr source packetSentToLower
attr title "packets sent to lower layer, vector(packetBytes)"
vector 342 FanetGpsrGrayholeSecure.host[12].wlan[0].mac rcvdPkFromHl:vector(packetBytes) ETV
attr interpolationmode none
attr source packetReceivedFromUpper
attr title "packets received from higher layer, vector(packetBytes)"
vector 343 FanetGpsrGrayholeSecure.host[12].wlan[0].mac.queue packetPushed:vector(packetBytes) ETV
attr interpolationmode none
attr title "packet pushed, vector(packetBytes)"
vector 344 FanetGpsrGrayholeSecure.host[12].wlan[0].mac.queue queueLength:vector ETV
attr interpolationmode sample-hold
attr source "count(packetPushed) - count(packetPopped) - count(packetRemoved) - count(packetDropped)"
attr title "queue length, vector"
vector 345 FanetGpsrGrayholeSecure.host[12].wlan[0].mac.queue packetPopped:vector(packetBytes) ETV
attr interpolationmode none
attr title "packet popped, vector(packetBytes)"
vector 346 FanetGpsrGrayholeSecure.host[12].wlan[0].mac.queue queueingTime:vector ETV
attr interpolationmode none
attr source queueingTime(packetPopped)
attr title "queueing times, vector"
attr unit s
vector 347 FanetGpsrGrayholeSecure.host[12].wlan[0].mac sentDownPk:vector(packetBytes) ETV
attr interpolationmode none
attr source packetSentToLower
attr title "packets sent to lower layer, vector(packetBytes)"
vector 348 FanetGpsrGrayholeSecure.host[11].wlan[0].mac packetDropNotAddressedToUs:vector(packetBytes) ETV
attr interpolationmode none
attr source packetDropReasonIsNotAddressedToUs(packetDropped)
attr title "packet drop: not addressed to us, vector(packetBytes)"
vector 349 FanetGpsrGrayholeSecure.host[26].wlan[0].mac packetDropNotAddressedToUs:vector(packetBytes) ETV
attr interpolationmode none
attr source packetDropReasonIsNotAddressedToUs(packetDropped)
attr title "packet drop: not addressed to us, vector(packetBytes)"
vector 350 FanetGpsrGrayholeSecure.host[23].wlan[0].mac packetDropNotAddressedToUs:vector(packetBytes) ETV
attr interpolationmode none
attr source packetDropReasonIsNotAddressedToUs(packetDropped)
attr title "packet drop: not addressed to us, vector(packetBytes)"
0	0	0	0
0	0	0	0
0	0	0	4
1	0	0	0
1	0	0	0
1	0	0	4
2	0	0	0
2	0	0	0
2	0	0	4
3	0	0	0
3	0	0	0
3	0	0	4
4	0	0	0
4	0	0	0
4	0	0	4
5	0	0	0
5	0	0	0
5	0	0	4
6	0	0	0
6	0	0	0
6	0	0	4
7	0	0	0
7	0	0	0
7	0	0	4
8	0	0	0
8	0	0	0
8	0	0	4
9	0	0	0
9	0	0	0
9	0	0	4
10	0	0	0
10	0	0	0
10	0	0	4
11	0	0	0
11	0	0	0
11	0	0	4
12	0	0	0
12	0	0	0
12	0	0	4
13	0	0	0
13	0	0	0
13	0	0	4
14	0	0	0
14	0	0	0
14	0	0	4
15	0	0	0
15	0	0	0
15	0	0	4
16	0	0	0
16	0	0	0
16	0	0	4
17	0	0	0
17	0	0	0
17	0	0	4
18	0	0	0
18	0	0	0
18	0	0	4
19	0	0	0
19	0	0	0
19	0	0	4
20	0	0	0
20	0	0	0
20	0	0	4
21	0	0	0
21	0	0	0
21	0	0	4
22	0	0	0
22	0	0	0
22	0	0	4
23	0	0	0
23	0	0	0
23	0	0	4
24	0	0	0
24	0	0	0
24	0	0	4
25	0	0	0
25	0	0	0
25	0	0	4
26	0	0	0
26	0	0	0
26	0	0	4
27	0	0	0
27	0	0	0
27	0	0	4
28	0	0	0
28	0	0	0
28	0	0	4
29	0	0	0
29	0	0	0
29	0	0	4
30	0	0	1
30	1147	1.072252639966	3
30	1186	1.072275306633	1
30	1371	1.092042831455	3
30	1410	1.092065498122	1
30	2211	1.346409602003	3
30	2256	1.34643226867	1
30	2693	1.417226171407	3
30	2741	1.41759150474	1
30	2838	1.451429591791	3
30	2886	1.451794925124	1
30	2923	1.452749652682	3
30	2956	1.452772319349	1
30	4024	1.882120451685	3
30	4063	1.882143118352	1
30	4220	1.938783506219	3
30	4271	1.938806172886	1
30	5189	2.288327187623	3
30	5228	2.28834985429	1
30	6137	2.604852936101	3
30	6170	2.604875602768	1
30	7510	3.142672128042	3
30	7567	3.142694794709	1
30	7666	3.188314460806	3
30	7708	3.188337127473	1
30	9026	3.69297495133	3
30	9062	3.692997617997	1
30	9850	3.969786240341	3
30	9883	3.969808907008	1
30	11386	4.5319600809	3
30	11422	4.531982747567	1
30	11728	4.663835992919	3
30	11770	4.663858659586	1
30	12292	4.815137926294	3
30	12325	4.815160592961	1
30	13436	5.299222627828	3
30	13472	5.299245294495	1
30	15051	5.869380371954	3
30	15084	5.869403038621	1
30	15866	6.02811745391	3
30	15908	6.028140120577	1
30	15944	6.053579123131	3
30	15983	6.053601789798	1
30	17250	6.745014434911	3
30	17292	6.745037101578	1
30	17680	6.847976699597	3
30	17713	6.847999366264	1
30	18282	7.009593746531	3
30	18321	7.009616413198	1
30	19592	7.569697407538	3
30	19634	7.569720074205	1
30	21340	8.126403896221	3
30	21393	8.126769229554	1
30	21684	8.220627357145	3
30	21717	8.220650023812	1
30	22306	8.462385404761	3
30	22345	8.462408071428	1
30	22586	8.587898118885	3
30	22628	8.587920785552	1
30	23590	8.854927738955	3
30	23643	8.855293072288	1
30	23756	8.895536229373	3
30	23789	8.89555889604	1
30	24445	9.100125831597	3
30	24498	9.10049116493	1
30	24612	9.145665244338	3
30	24651	9.145687911005	1
30	25050	9.25285699032	3
30	25092	9.252879656987	1
30	25626	9.445645415306	3
30	25679	9.446010748639	1
30	26213	9.478958664122	3
30	26246	9.478981330789	1
30	26547	9.769286621592	3
30	26589	9.769309288259	1
30	27065	9.932580289802	3
[...]
348	76009	26.548455810134	1084
348	76075	26.548821632376	1084
348	83174	29.071473366842	1084
348	83240	29.071839047058	1084
348	90872	31.705604866466	1084
348	90936	31.705970410374	1084
348	92116	32.187584087849	1084
348	92180	32.187949618136	1084
348	94124	32.798338262714	1084
348	94188	32.798703793001	1084
348	97420	33.817733450782	1084
348	97484	33.818098981069	1084
348	100480	34.825006139172	1084
348	100544	34.825371669459	1084
348	101163	35.146003797065	1084
348	101227	35.146369327352	1084
348	101401	35.214442672448	1084
348	101465	35.214808202735	1084
348	101763	35.282298550496	1084
348	101827	35.282664080783	1084
348	102670	35.459179256618	1084
348	102734	35.459544786905	1084
348	103759	35.681818108653	1084
348	103823	35.68218363894	1084
348	110805	38.302019685534	1084
348	110869	38.302385215821	1084
348	112303	38.685087752619	1084
348	112367	38.685453282906	1084
348	118500	40.94217489425	1084
348	118564	40.942540424537	1084
348	121337	41.963007313303	1084
348	121401	41.96337284359	1084
348	124693	42.908025303915	1084
348	124757	42.908390834202	1084
348	126643	43.560768924457	1084
348	126707	43.561134454744	1084
348	133086	45.828759315293	1084
348	133150	45.82912484558	1084
348	136602	47.129048457325	1084
348	136666	47.129413987612	1084
348	142678	49.32381550611	1084
348	142742	49.324181036397	1084
348	146531	50.623861515289	1084
348	146595	50.624227045576	1084
348	149811	51.830932676191	1084
348	149875	51.831298206478	1084
348	160138	55.34009732836	1084
348	160201	55.340462805978	1084
348	160613	55.470960265915	1084
348	160676	55.471325743931	1084
348	164429	56.691564154694	1084
348	164492	56.691929644382	1084
349	21475	8.127135587285	1084
349	23725	8.855659430019	1084
349	24580	9.100857522661	1084
349	25761	9.44637710637	1084
349	37246	13.602348201933	1084
349	38951	14.170518685675	1084
349	41702	15.056279331705	1084
349	43827	15.769663614506	1084
349	49973	17.907085304923	1084
349	52123	18.666050079172	1084
349	52410	18.681779202947	1084
349	55772	19.731121368874	1084
349	56797	20.007426561802	1084
349	58555	20.695940449846	1084
349	60036	21.124448054026	1084
349	60433	21.23639259517	1084
349	61470	21.502209144192	1084
349	61945	21.644712089843	1084
349	65719	23.026171169691	1084
349	69352	24.217152623088	1084
349	72086	25.19968096581	1084
349	74305	25.994553801876	1084
349	76092	26.548822287958	1084
349	83257	29.071839809611	1084
350	83114	29.071107673457	1084
350	90811	31.705239007284	1084
350	92055	32.187218211105	1084
350	94063	32.79797238597	1084
350	97359	33.817367574038	1084
350	100419	34.824640262428	1084
350	101102	35.145637920321	1084
350	101340	35.214076795704	1084
350	101702	35.281932673752	1084
350	102609	35.458813379874	1084
350	103698	35.681452231909	1084
350	110744	38.30165380879	1084
350	112242	38.684721875875	1084
350	118439	40.941809017506	1084
350	121276	41.962641436559	1084
350	124632	42.907659427171	1084
350	126582	43.560403047713	1084
350	133025	45.828393438549	1084
350	136541	47.128682580581	1084
350	142617	49.323449629366	1084
350	146470	50.623495638545	1084
350	149750	51.830566799447	1084
350	160077	55.339731347212	1084
350	160552	55.470594280745	1084
350	164368	56.691198132292	1084
350	168571	58.18063748196	1084
350	168639	58.181003617865	1084
350	174576	60.274904929506	1084
350	174644	60.275271065411	1084
350	183267	63.227997074428	1084
350	183335	63.228363210333	1084
350	184738	63.778004438523	1084
350	184807	63.778370574428	1084
350	191388	66.202202192584	1084
350	191456	66.202568328489	1084
350	192975	66.793780156306	1084
350	193043	66.794146292211	1084
350	195116	67.346911377426	1084
350	195184	67.347277513331	1084
350	205936	71.279637112076	1084
350	206004	71.280003247981	1084
350	213725	74.058072903694	1084
350	213793	74.058439039599	1084
350	215488	74.526577856505	1084
350	215556	74.52694399241	1084
350	218955	75.818712634304	1084
350	219023	75.819078770209	1084
350	222862	77.230477536117	1084
350	222930	77.230843672022	1084
350	225821	78.191497016777	1084
350	225889	78.191863144138	1084
350	230060	79.66829450182	1084
350	230126	79.668660564604	1084
350	233049	80.801172099756	1084
350	233110	80.801538114746	1084
350	234847	81.145620407238	1084
350	234908	81.145986408016	1084
350	237767	82.218161908715	1084
350	237828	82.218527866237	1084
vector 351 FanetGpsrGrayholeSecure.host[0].app[0] throughput:vector ETV
attr source throughput(packetReceived)
attr title "throughput, vector"
attr unit bps
325	238080	82.268770359213	116329.18733523
351	238080	0.1	0
351	238080	0.2	0
351	238080	0.3	0
351	238080	0.4	0
351	238080	0.5	0
351	238080	0.6	0
351	238080	0.7	0
351	238080	0.8	0
351	238080	0.9	0
351	238080	1	0
351	238080	1.1	0
351	238080	1.2	0
351	238080	1.3	0
351	238080	1.4	0
351	238080	1.5	0
351	238080	1.6	0
351	238080	1.7	0
351	238080	1.8	0
351	238080	1.9	0
351	238080	2	0
351	238080	2.1	0
351	238080	2.2	0
351	238080	2.3	0
351	238080	2.4	0
351	238080	2.5	0
351	238080	2.6	0
351	238080	2.7	0
351	238080	2.8	0
351	238080	2.9	0
351	238080	3	0
351	238080	3.1	0
351	238080	3.2	0
351	238080	3.3	0
351	238080	3.4	0
351	238080	3.5	0
351	238080	3.6	0
351	238080	3.7	0
351	238080	3.8	0
351	238080	3.9	0
351	238080	4	0
351	238080	4.1	0
351	238080	4.2	0
351	238080	4.3	0
351	238080	4.4	0
351	238080	4.5	0
351	238080	4.6	0
351	238080	4.7	0
351	238080	4.8	0
351	238080	4.9	0
351	238080	5	0
351	238080	5.1	0
351	238080	5.2	0
351	238080	5.3	0
351	238080	5.4	0
351	238080	5.5	0
351	238080	5.6	0
351	238080	5.7	0
351	238080	5.8	0
351	238080	5.9	0
351	238080	6	0
351	238080	6.1	0
351	238080	6.2	0
351	238080	6.3	0
351	238080	6.4	0
351	238080	6.5	0
351	238080	6.6	0
351	238080	6.7	0
351	238080	6.8	0
351	238080	6.9	0
351	238080	7	0
351	238080	7.1	0
351	238080	7.2	0
351	238080	7.3	0
351	238080	7.4	0
351	238080	7.5	0
351	238080	7.6	0
351	238080	7.7	0
351	238080	7.8	0
351	238080	7.9	0
351	238080	8	0
351	238080	8.1	0
351	238080	8.2	0
351	238080	8.3	0
351	238080	8.4	0
351	238080	8.5	0
351	238080	8.6	0
351	238080	8.7	0
351	238080	8.8	0
351	238080	8.9	0
351	238080	9	0
351	238080	9.1	0
351	238080	9.2	0
351	238080	9.3	0
351	238080	9.4	0
351	238080	9.5	0
351	238080	9.6	0
351	238080	9.7	0
351	238080	9.8	0
351	238080	9.9	0
351	238080	10	0
351	238080	10.1	0
351	238080	10.2	0
351	238080	10.3	0
351	238080	10.4	0
351	238080	10.5	0
351	238080	10.6	0
351	238080	10.7	0
351	238080	10.8	0
351	238080	10.9	0
351	238080	11	0
351	238080	11.1	0
351	238080	11.2	0
351	238080	11.3	0
351	238080	11.4	0
351	238080	11.5	0
351	238080	11.6	0
351	238080	11.7	0
351	238080	11.8	0
351	238080	11.9	0
351	238080	12	0
351	238080	12.1	0
351	238080	12.2	0
351	238080	12.3	0
351	238080	12.4	0
351	238080	12.5	0
351	238080	12.6	0
351	238080	12.7	0
351	238080	12.8	0
351	238080	12.9	0
351	238080	13	0
351	238080	13.1	0
351	238080	13.2	0
351	238080	13.3	0
351	238080	13.4	0
351	238080	13.5	0
351	238080	13.6	0
351	238080	13.7	0
351	238080	13.8	0
351	238080	13.9	0
351	238080	14	0
351	238080	14.1	0
351	238080	14.2	0
351	238080	14.3	0
351	238080	14.4	0
351	238080	14.5	0
351	238080	14.6	0
351	238080	14.7	0
351	238080	14.8	0
351	238080	14.9	0
351	238080	15	0
351	238080	15.1	0
351	238080	15.2	0
351	238080	15.3	0
351	238080	15.4	0
351	238080	15.5	0
351	238080	15.6	0
351	238080	15.7	0
351	238080	15.8	0
351	238080	15.9	0
351	238080	16	0
351	238080	16.1	0
351	238080	16.2	0
351	238080	16.3	0
351	238080	16.4	0
351	238080	16.5	0
351	238080	16.6	0
351	238080	16.7	0
351	238080	16.8	0
351	238080	16.9	0
351	238080	17	0
351	238080	17.1	0
351	238080	17.2	0
351	238080	17.3	0
351	238080	17.4	0
351	238080	17.5	0
351	238080	17.6	0
351	238080	17.7	0
351	238080	17.8	0
351	238080	17.9	0
351	238080	18	0
351	238080	18.1	0
351	238080	18.2	0
351	238080	18.3	0
351	238080	18.4	0
351	238080	18.5	0
351	238080	18.6	0
351	238080	18.7	0
351	238080	18.8	0
351	238080	18.9	0
351	238080	19	0
351	238080	19.1	0
351	238080	19.2	0
351	238080	19.3	0
351	238080	19.4	0
351	238080	19.5	0
351	238080	19.6	0
351	238080	19.7	0
351	238080	19.8	0
351	238080	19.9	0
351	238080	20	0
351	238080	20.1	0
351	238080	20.2	0
351	238080	20.3	0
351	238080	20.4	0
351	238080	20.5	0
351	238080	20.6	0
351	238080	20.7	0
351	238080	20.8	0
351	238080	20.9	0
351	238080	21	0
351	238080	21.1	0
351	238080	21.2	0
351	238080	21.3	0
351	238080	21.4	0
351	238080	21.5	0
351	238080	21.6	0
351	238080	21.7	0
351	238080	21.8	0
351	238080	21.9	0
351	238080	22	0
351	238080	22.1	0
351	238080	22.2	0
351	238080	22.3	0
351	238080	22.4	0
351	238080	22.5	0
351	238080	22.6	0
351	238080	22.7	0
351	238080	22.8	0
351	238080	22.9	0
351	238080	23	0
351	238080	23.1	0
351	238080	23.2	0
351	238080	23.3	0
351	238080	23.4	0
351	238080	23.5	0
351	238080	23.6	0
351	238080	23.7	0
351	238080	23.8	0
351	238080	23.9	0
351	238080	24	0
351	238080	24.1	0
351	238080	24.2	0
351	238080	24.3	0
351	238080	24.4	0
351	238080	24.5	0
351	238080	24.6	0
351	238080	24.7	0
351	238080	24.8	0
351	238080	24.9	0
351	238080	25	0
351	238080	25.1	0
351	238080	25.2	0
351	238080	25.3	0
351	238080	25.4	0
351	238080	25.5	0
351	238080	25.6	0
351	238080	25.7	0
351	238080	25.8	0
351	238080	25.9	0
351	238080	26	0
351	238080	26.1	0
351	238080	26.2	0
351	238080	26.3	0
351	238080	26.4	0
351	238080	26.5	0
351	238080	26.6	0
351	238080	26.7	0
351	238080	26.8	0
351	238080	26.9	0
351	238080	27	0
351	238080	27.1	0
351	238080	27.2	0
351	238080	27.3	0
351	238080	27.4	0
351	238080	27.5	0
351	238080	27.6	0
351	238080	27.7	0
351	238080	27.8	0
351	238080	27.9	0
351	238080	28	0
351	238080	28.1	0
351	238080	28.2	0
351	238080	28.3	0
351	238080	28.4	0
351	238080	28.5	0
351	238080	28.6	0
351	238080	28.7	0
351	238080	28.8	0
351	238080	28.9	0
351	238080	29	0
351	238080	29.1	0
351	238080	29.2	0
351	238080	29.3	0
351	238080	29.4	0
351	238080	29.5	0
351	238080	29.6	0
351	238080	29.7	0
351	238080	29.8	0
351	238080	29.9	0
351	238080	30	0
351	238080	30.1	0
351	238080	30.2	0
351	238080	30.3	0
351	238080	30.4	0
351	238080	30.5	0
351	238080	30.6	0
351	238080	30.7	0
351	238080	30.8	0
351	238080	30.9	0
351	238080	31	0
351	238080	31.1	0
351	238080	31.2	0
351	238080	31.3	0
351	238080	31.4	0
351	238080	31.5	0
351	238080	31.6	0
351	238080	31.7	0
351	238080	31.8	0
351	238080	31.9	0
351	238080	32	0
351	238080	32.1	0
351	238080	32.2	0
351	238080	32.3	0
351	238080	32.4	0
351	238080	32.5	0
351	238080	32.6	0
351	238080	32.7	0
351	238080	32.8	0
351	238080	32.9	0
351	238080	33	0
351	238080	33.1	0
351	238080	33.2	0
351	238080	33.3	0
351	238080	33.4	0
351	238080	33.5	0
351	238080	33.6	0
351	238080	33.7	0
351	238080	33.8	0
351	238080	33.9	0
351	238080	34	0
351	238080	34.1	0
351	238080	34.2	0
351	238080	34.3	0
351	238080	34.4	0
351	238080	34.5	0
351	238080	34.6	0
351	238080	34.7	0
351	238080	34.8	0
351	238080	34.9	0
351	238080	35	0
351	238080	35.1	0
351	238080	35.2	0
351	238080	35.3	0
351	238080	35.4	0
351	238080	35.5	0
351	238080	35.6	0
351	238080	35.7	0
351	238080	35.8	0
351	238080	35.9	0
351	238080	36	0
351	238080	36.1	0
351	238080	36.2	0
351	238080	36.3	0
351	238080	36.4	0
351	238080	36.5	0
351	238080	36.6	0
351	238080	36.7	0
351	238080	36.8	0
351	238080	36.9	0
351	238080	37	0
351	238080	37.1	0
351	238080	37.2	0
351	238080	37.3	0
351	238080	37.4	0
351	238080	37.5	0
351	238080	37.6	0
351	238080	37.7	0
351	238080	37.8	0
351	238080	37.9	0
351	238080	38	0
351	238080	38.1	0
351	238080	38.2	0
351	238080	38.3	0
351	238080	38.4	0
351	238080	38.5	0
351	238080	38.6	0
351	238080	38.7	0
351	238080	38.8	0
351	238080	38.9	0
351	238080	39	0
351	238080	39.1	0
351	238080	39.2	0
351	238080	39.3	0
351	238080	39.4	0
351	238080	39.5	0
351	238080	39.6	0
351	238080	39.7	0
351	238080	39.8	0
351	238080	39.9	0
351	238080	40	0
351	238080	40.1	0
351	238080	40.2	0
351	238080	40.3	0
351	238080	40.4	0
351	238080	40.5	0
351	238080	40.6	0
351	238080	40.7	0
351	238080	40.8	0
351	238080	40.9	0
351	238080	41	0
351	238080	41.1	0
351	238080	41.2	0
351	238080	41.3	0
351	238080	41.4	0
351	238080	41.5	0
351	238080	41.6	0
351	238080	41.7	0
351	238080	41.8	0
351	238080	41.9	0
351	238080	42	0
351	238080	42.1	0
351	238080	42.2	0
351	238080	42.3	0
351	238080	42.4	0
351	238080	42.5	0
351	238080	42.6	0
351	238080	42.7	0
351	238080	42.8	0
351	238080	42.9	0
351	238080	43	0
351	238080	43.1	0
351	238080	43.2	0
351	238080	43.3	0
351	238080	43.4	0
351	238080	43.5	0
351	238080	43.6	0
351	238080	43.7	0
351	238080	43.8	0
351	238080	43.9	0
351	238080	44	0
351	238080	44.1	0
351	238080	44.2	0
351	238080	44.3	0
351	238080	44.4	0
351	238080	44.5	0
351	238080	44.6	0
351	238080	44.7	0
351	238080	44.8	0
351	238080	44.9	0
351	238080	45	0
351	238080	45.1	0
351	238080	45.2	0
351	238080	45.3	0
351	238080	45.4	0
351	238080	45.5	0
351	238080	45.6	0
351	238080	45.7	0
351	238080	45.8	0
351	238080	45.9	0
351	238080	46	0
351	238080	46.1	0
351	238080	46.2	0
351	238080	46.3	0
351	238080	46.4	0
351	238080	46.5	0
351	238080	46.6	0
351	238080	46.7	0
351	238080	46.8	0
351	238080	46.9	0
351	238080	47	0
351	238080	47.1	0
351	238080	47.2	0
351	238080	47.3	0
351	238080	47.4	0
351	238080	47.5	0
351	238080	47.6	0
351	238080	47.7	0
351	238080	47.8	0
351	238080	47.9	0
351	238080	48	0
351	238080	48.1	0
351	238080	48.2	0
351	238080	48.3	0
351	238080	48.4	0
351	238080	48.5	0
351	238080	48.6	0
351	238080	48.7	0
351	238080	48.8	0
351	238080	48.9	0
351	238080	49	0
351	238080	49.1	0
351	238080	49.2	0
351	238080	49.3	0
351	238080	49.4	0
351	238080	49.5	0
351	238080	49.6	0
351	238080	49.7	0
351	238080	49.8	0
351	238080	49.9	0
351	238080	50	0
351	238080	50.1	0
351	238080	50.2	0
351	238080	50.3	0
351	238080	50.4	0
351	238080	50.5	0
351	238080	50.6	0
351	238080	50.7	0
351	238080	50.8	0
351	238080	50.9	0
351	238080	51	0
351	238080	51.1	0
351	238080	51.2	0
351	238080	51.3	0
351	238080	51.4	0
351	238080	51.5	0
351	238080	51.6	0
351	238080	51.7	0
351	238080	51.8	0
351	238080	51.9	0
351	238080	52	0
351	238080	52.1	0
351	238080	52.2	0
351	238080	52.3	0
351	238080	52.4	0
351	238080	52.5	0
351	238080	52.6	0
351	238080	52.7	0
351	238080	52.8	0
351	238080	52.9	0
351	238080	53	0
351	238080	53.1	0
351	238080	53.2	0
351	238080	53.3	0
351	238080	53.4	0
351	238080	53.5	0
351	238080	53.6	0
351	238080	53.7	0
351	238080	53.8	0
351	238080	53.9	0
351	238080	54	0
351	238080	54.1	0
351	238080	54.2	0
351	238080	54.3	0
351	238080	54.4	0
351	238080	54.5	0
351	238080	54.6	0
351	238080	54.7	0
351	238080	54.8	0
351	238080	54.9	0
351	238080	55	0
351	238080	55.1	0
351	238080	55.2	0
351	238080	55.3	0
351	238080	55.4	0
351	238080	55.5	0
351	238080	55.6	0
351	238080	55.7	0
351	238080	55.8	0
351	238080	55.9	0
351	238080	56	0
351	238080	56.1	0
351	238080	56.2	0
351	238080	56.3	0
351	238080	56.4	0
351	238080	56.5	0
351	238080	56.6	0
351	238080	56.7	0
351	238080	56.8	0
351	238080	56.9	0
351	238080	57	0
351	238080	57.1	0
351	238080	57.2	0
351	238080	57.3	0
351	238080	57.4	0
351	238080	57.5	0
351	238080	57.6	0
351	238080	57.7	0
351	238080	57.8	0
351	238080	57.9	0
351	238080	58	0
351	238080	58.1	0
351	238080	58.2	0
351	238080	58.3	0
351	238080	58.4	0
351	238080	58.5	0
351	238080	58.6	0
351	238080	58.7	0
351	238080	58.8	0
351	238080	58.9	0
351	238080	59	0
351	238080	59.1	0
351	238080	59.2	0
351	238080	59.3	0
351	238080	59.4	0
351	238080	59.5	0
351	238080	59.6	0
351	238080	59.7	0
351	238080	59.8	0
351	238080	59.9	0
351	238080	60	0
351	238080	60.1	0
351	238080	60.2	0
351	238080	60.3	0
351	238080	60.4	0
351	238080	60.5	0
351	238080	60.6	0
351	238080	60.7	0
351	238080	60.8	0
351	238080	60.9	0
351	238080	61	0
351	238080	61.1	0
351	238080	61.2	0
351	238080	61.3	0
351	238080	61.4	0
351	238080	61.5	0
351	238080	61.6	0
351	238080	61.7	0
351	238080	61.8	0
351	238080	61.9	0
351	238080	62	0
351	238080	62.1	0
351	238080	62.2	0
351	238080	62.3	0
351	238080	62.4	0
351	238080	62.5	0
351	238080	62.6	0
351	238080	62.7	0
351	238080	62.8	0
351	238080	62.9	0
351	238080	63	0
351	238080	63.1	0
351	238080	63.2	0
351	238080	63.3	0
351	238080	63.4	0
351	238080	63.5	0
351	238080	63.6	0
351	238080	63.7	0
351	238080	63.8	0
351	238080	63.9	0
351	238080	64	0
351	238080	64.1	0
351	238080	64.2	0
351	238080	64.3	0
351	238080	64.4	0
351	238080	64.5	0
351	238080	64.6	0
351	238080	64.7	0
351	238080	64.8	0
351	238080	64.9	0
351	238080	65	0
351	238080	65.1	0
351	238080	65.2	0
351	238080	65.3	0
351	238080	65.4	0
351	238080	65.5	0
351	238080	65.6	0
351	238080	65.7	0
351	238080	65.8	0
351	238080	65.9	0
351	238080	66	0
351	238080	66.1	0
351	238080	66.2	0
351	238080	66.3	0
351	238080	66.4	0
351	238080	66.5	0
351	238080	66.6	0
351	238080	66.7	0
351	238080	66.8	0
351	238080	66.9	0
351	238080	67	0
351	238080	67.1	0
351	238080	67.2	0
351	238080	67.3	0
351	238080	67.4	0
351	238080	67.5	0
351	238080	67.6	0
351	238080	67.7	0
351	238080	67.8	0
351	238080	67.9	0
351	238080	68	0
351	238080	68.1	0
351	238080	68.2	0
351	238080	68.3	0
351	238080	68.4	0
351	238080	68.5	0
351	238080	68.6	0
351	238080	68.7	0
351	238080	68.8	0
351	238080	68.9	0
351	238080	69	0
351	238080	69.1	0
351	238080	69.2	0
351	238080	69.3	0
351	238080	69.4	0
351	238080	69.5	0
351	238080	69.6	0
351	238080	69.7	0
351	238080	69.8	0
351	238080	69.9	0
351	238080	70	0
351	238080	70.1	0
351	238080	70.2	0
351	238080	70.3	0
351	238080	70.4	0
351	238080	70.5	0
351	238080	70.6	0
351	238080	70.7	0
351	238080	70.8	0
351	238080	70.9	0
351	238080	71	0
351	238080	71.1	0
351	238080	71.2	0
351	238080	71.3	0
351	238080	71.4	0
351	238080	71.5	0
351	238080	71.6	0
351	238080	71.7	0
351	238080	71.8	0
351	238080	71.9	0
351	238080	72	0
351	238080	72.1	0
351	238080	72.2	0
351	238080	72.3	0
351	238080	72.4	0
351	238080	72.5	0
351	238080	72.6	0
351	238080	72.7	0
351	238080	72.8	0
351	238080	72.9	0
351	238080	73	0
351	238080	73.1	0
351	238080	73.2	0
351	238080	73.3	0
351	238080	73.4	0
351	238080	73.5	0
351	238080	73.6	0
351	238080	73.7	0
351	238080	73.8	0
351	238080	73.9	0
351	238080	74	0
351	238080	74.1	0
351	238080	74.2	0
351	238080	74.3	0
351	238080	74.4	0
351	238080	74.5	0
351	238080	74.6	0
351	238080	74.7	0
351	238080	74.8	0
351	238080	74.9	0
351	238080	75	0
351	238080	75.1	0
351	238080	75.2	0
351	238080	75.3	0
351	238080	75.4	0
351	238080	75.5	0
351	238080	75.6	0
351	238080	75.7	0
351	238080	75.8	0
351	238080	75.9	0
351	238080	76	0
351	238080	76.1	0
351	238080	76.2	0
351	238080	76.3	0
351	238080	76.4	0
351	238080	76.5	0
351	238080	76.6	0
351	238080	76.7	0
351	238080	76.8	0
351	238080	76.9	0
351	238080	77	0
351	238080	77.1	0
351	238080	77.2	0
351	238080	77.3	0
351	238080	77.4	0
351	238080	77.5	0
351	238080	77.6	0
351	238080	77.7	0
351	238080	77.8	0
351	238080	77.9	0
351	238080	78	0
351	238080	78.1	0
351	238080	78.2	0
351	238080	78.3	0
351	238080	78.4	0
351	238080	78.5	0
351	238080	78.6	0
351	238080	78.7	0
351	238080	78.8	0
351	238080	78.9	0
351	238080	79	0
351	238080	79.1	0
351	238080	79.2	0
351	238080	79.3	0
351	238080	79.4	0
351	238080	79.5	0
351	238080	79.6	0
351	238080	79.7	0
351	238080	79.8	0
351	238080	79.9	0
351	238080	80	0
351	238080	80.1	0
351	238080	80.2	0
351	238080	80.3	0
351	238080	80.4	0
351	238080	80.5	0
351	238080	80.6	0
351	238080	80.7	0
351	238080	80.8	0
351	238080	80.9	0
351	238080	81	0
351	238080	81.1	0
351	238080	81.2	0
351	238080	81.3	0
351	238080	81.4	0
351	238080	81.5	0
351	238080	81.6	0
351	238080	81.7	0
351	238080	81.8	0
351	238080	81.9	0
351	238080	82	0
351	238080	82.1	0
351	238080	82.2	0
351	238080	82.268770359213	0

