file 1176331 1637145797                                         
version 2
run _3D_Turtle_Mixed-0-20211117-11:42:40-6060
attr configname _3D_Turtle_Mixed
attr datetime 20211117-11:42:40
attr experiment _3D_Turtle_Mixed
attr inifile omnetpp.ini
attr iterationvars ""
attr iterationvarsf ""
attr measurement ""
attr network FanetGpsrMixed
attr processid 6060
attr repetition 0
attr replication #0
attr resultdir results
attr runnumber 0
attr seedset 0
param *.host[*].osgModel "\"3d/drone.ive.100.scale.0,0,90.rot\""
param *.sybil[*].osgModel "\"3d/glider.osgb.100.scale.0,0,90.rot\""
param *.grayhole[*].osgModel "\"3d/glider.osgb.100.scale.0,0,90.rot\""
param *.host*.mobility.typename "\"TurtleMobility\""
param *.host*.mobility.turtleScript "xmldoc(\"config.xml\")"
param *.sybil*.mobility.typename "\"TurtleMobility\""
param *.sybil*.mobility.turtleScript "xmldoc(\"config.xml\")"
param *.grayhole*.mobility.typename "\"TurtleMobility\""
param *.grayhole*.mobility.turtleScript "xmldoc(\"config.xml\")"
param *.host[0].numApps 1
param *.host[0].app[0].typename "\"UdpBasicApp\""
param *.host[0].app[0].destAddresses "\"host[20]\""
param *.host[0].app[0].destPort 5000
param *.host[0].app[0].messageLength 1000B
param *.host[0].app[0].sendInterval exponential(1s)
param *.host[0].app[0].packetName "\"UDPData\""
param *.host[20].numApps 1
param *.host[20].app[0].typename "\"UdpSink\""
param *.host[20].app[0].localPort 5000
param **.wlan[*].bitrate 24Mbps
param *.configurator.addStaticRoutes false
param **.netmaskRoutes "\"\""
param **.arp.typename "\"GlobalArp\""
param **.planarizationMode "\"RNG\""
param **.beaconInterval 1s
param *.host*.wlan[0].typename "\"AckingWirelessInterface\""
param *.host*.wlan[0].radio.transmitter.communicationRange 300m
param *.sybil*.wlan[0].typename "\"AckingWirelessInterface\""
param *.sybil*.wlan[0].radio.transmitter.communicationRange 300m
param *.grayhole*.wlan[0].typename "\"AckingWirelessInterface\""
param *.grayhole*.wlan[0].radio.transmitter.communicationRange 300m
param *.visualizer.osgVisualizer.typename "\"IntegratedOsgVisualizer\""
param *.visualizer.osgVisualizer.sceneVisualizer.typename "\"SceneOsgEarthVisualizer\""
param *.visualizer.osgVisualizer.sceneVisualizer.mapFile "\"unical.earth\""
param *.coordinateSystem.sceneLongitude 16.2215deg
param *.coordinateSystem.sceneLatitude 39.3701deg
param *.visualizer.osgVisualizer.sceneVisualizer.clearColor "\"skyblue\""
param *.visualizer.osgVisualizer.sceneVisualizer.sceneShading false
param *.visualizer.osgVisualizer.sceneVisualizer.sceneColor "\"#000000\""
param *.visualizer.osgVisualizer.sceneVisualizer.sceneOpacity 0.0
param *.visualizer.osgVisualizer.sceneVisualizer.sceneImageSize 4000m
param *.visualizer.osgVisualizer.sceneVisualizer.axisLength 2000m
param *.visualizer.osgVisualizer.sceneVisualizer.sceneMinX 0m
param *.visualizer.osgVisualizer.sceneVisualizer.sceneMinY 0m
param *.visualizer.osgVisualizer.sceneVisualizer.sceneMinZ 0m
param *.visualizer.osgVisualizer.sceneVisualizer.sceneMaxX 1700m
param *.visualizer.osgVisualizer.sceneVisualizer.sceneMaxY 300m
param *.visualizer.osgVisualizer.sceneVisualizer.sceneMaxZ 20m
param *.coordinateSystem.sceneAltitude 20m
param *.coordinateSystem.sceneHeading 169deg
param *.visualizer.osgVisualizer.networkNodeVisualizer.displayModuleName false
param *.visualizer.*.mobilityVisualizer.displayMobility true
param *.visualizer.*.mobilityVisualizer.displayPositions true
param *.visualizer.*.mobilityVisualizer.displayOrientations true
param *.visualizer.*.mobilityVisualizer.displayVelocities true
param *.visualizer.*.mobilityVisualizer.displayMovementTrails true
param *.visualizer.*.mobilityVisualizer.animationSpeed 1
param **.constraintAreaMinX 0m
param **.constraintAreaMinY 0m
param **.constraintAreaMinZ 200m
param **.constraintAreaMaxX 1500m
param **.constraintAreaMaxY 800m
param **.constraintAreaMaxZ 400m

vector 0 FanetGpsrMixed.host[0].wlan[0].radio radioMode:vector ETV
attr interpolationmode sample-hold
attr source radioModeChanged
attr title "Radio mode, vector"
vector 1 FanetGpsrMixed.host[1].wlan[0].radio radioMode:vector ETV
attr interpolationmode sample-hold
attr source radioModeChanged
attr title "Radio mode, vector"
vector 2 FanetGpsrMixed.host[2].wlan[0].radio radioMode:vector ETV
attr interpolationmode sample-hold
attr source radioModeChanged
attr title "Radio mode, vector"
vector 3 FanetGpsrMixed.host[3].wlan[0].radio radioMode:vector ETV
attr interpolationmode sample-hold
attr source radioModeChanged
attr title "Radio mode, vector"
vector 4 FanetGpsrMixed.host[4].wlan[0].radio radioMode:vector ETV
attr interpolationmode sample-hold
attr source radioModeChanged
attr title "Radio mode, vector"
vector 5 FanetGpsrMixed.host[5].wlan[0].radio radioMode:vector ETV
attr interpolationmode sample-hold
attr source radioModeChanged
attr title "Radio mode, vector"
vector 6 FanetGpsrMixed.host[6].wlan[0].radio radioMode:vector ETV
attr interpolationmode sample-hold
attr source radioModeChanged
attr title "Radio mode, vector"
vector 7 FanetGpsrMixed.host[7].wlan[0].radio radioMode:vector ETV
attr interpolationmode sample-hold
attr source radioModeChanged
attr title "Radio mode, vector"
vector 8 FanetGpsrMixed.host[8].wlan[0].radio radioMode:vector ETV
attr interpolationmode sample-hold
attr source radioModeChanged
attr title "Radio mode, vector"
vector 9 FanetGpsrMixed.host[9].wlan[0].radio radioMode:vector ETV
attr interpolationmode sample-hold
attr source radioModeChanged
attr title "Radio mode, vector"
vector 10 FanetGpsrMixed.host[10].wlan[0].radio radioMode:vector ETV
attr interpolationmode sample-hold
attr source radioModeChanged
attr title "Radio mode, vector"
vector 11 FanetGpsrMixed.host[11].wlan[0].radio radioMode:vector ETV
attr interpolationmode sample-hold
attr source radioModeChanged
attr title "Radio mode, vector"
vector 12 FanetGpsrMixed.host[12].wlan[0].radio radioMode:vector ETV
attr interpolationmode sample-hold
attr source radioModeChanged
attr title "Radio mode, vector"
vector 13 FanetGpsrMixed.host[13].wlan[0].radio radioMode:vector ETV
attr interpolationmode sample-hold
attr source radioModeChanged
attr title "Radio mode, vector"
vector 14 FanetGpsrMixed.host[14].wlan[0].radio radioMode:vector ETV
attr interpolationmode sample-hold
attr source radioModeChanged
attr title "Radio mode, vector"
vector 15 FanetGpsrMixed.host[15].wlan[0].radio radioMode:vector ETV
attr interpolationmode sample-hold
attr source radioModeChanged
attr title "Radio mode, vector"
vector 16 FanetGpsrMixed.host[16].wlan[0].radio radioMode:vector ETV
attr interpolationmode sample-hold
attr source radioModeChanged
attr title "Radio mode, vector"
vector 17 FanetGpsrMixed.host[17].wlan[0].radio radioMode:vector ETV
attr interpolationmode sample-hold
attr source radioModeChanged
attr title "Radio mode, vector"
vector 18 FanetGpsrMixed.host[18].wlan[0].radio radioMode:vector ETV
attr interpolationmode sample-hold
attr source radioModeChanged
attr title "Radio mode, vector"
vector 19 FanetGpsrMixed.host[19].wlan[0].radio radioMode:vector ETV
attr interpolationmode sample-hold
attr source radioModeChanged
attr title "Radio mode, vector"
vector 20 FanetGpsrMixed.host[20].wlan[0].radio radioMode:vector ETV
attr interpolationmode sample-hold
attr source radioModeChanged
attr title "Radio mode, vector"
vector 21 FanetGpsrMixed.host[21].wlan[0].radio radioMode:vector ETV
attr interpolationmode sample-hold
attr source radioModeChanged
attr title "Radio mode, vector"
vector 22 FanetGpsrMixed.host[22].wlan[0].radio radioMode:vector ETV
attr interpolationmode sample-hold
attr source radioModeChanged
attr title "Radio mode, vector"
vector 23 FanetGpsrMixed.host[23].wlan[0].radio radioMode:vector ETV
attr interpolationmode sample-hold
attr source radioModeChanged
attr title "Radio mode, vector"
vector 24 FanetGpsrMixed.host[24].wlan[0].radio radioMode:vector ETV
attr interpolationmode sample-hold
attr source radioModeChanged
attr title "Radio mode, vector"
vector 25 FanetGpsrMixed.host[25].wlan[0].radio radioMode:vector ETV
attr interpolationmode sample-hold
attr source radioModeChanged
attr title "Radio mode, vector"
vector 26 FanetGpsrMixed.host[26].wlan[0].radio radioMode:vector ETV
attr interpolationmode sample-hold
attr source radioModeChanged
attr title "Radio mode, vector"
vector 27 FanetGpsrMixed.host[27].wlan[0].radio radioMode:vector ETV
attr interpolationmode sample-hold
attr source radioModeChanged
attr title "Radio mode, vector"
vector 28 FanetGpsrMixed.host[28].wlan[0].radio radioMode:vector ETV
attr interpolationmode sample-hold
attr source radioModeChanged
attr title "Radio mode, vector"
vector 29 FanetGpsrMixed.host[29].wlan[0].radio radioMode:vector ETV
attr interpolationmode sample-hold
attr source radioModeChanged
attr title "Radio mode, vector"
vector 30 FanetGpsrMixed.host[30].wlan[0].radio radioMode:vector ETV
attr interpolationmode sample-hold
attr source radioModeChanged
attr title "Radio mode, vector"
vector 31 FanetGpsrMixed.host[31].wlan[0].radio radioMode:vector ETV
attr interpolationmode sample-hold
attr source radioModeChanged
attr title "Radio mode, vector"
vector 32 FanetGpsrMixed.host[32].wlan[0].radio radioMode:vector ETV
attr interpolationmode sample-hold
attr source radioModeChanged
attr title "Radio mode, vector"
vector 33 FanetGpsrMixed.host[33].wlan[0].radio radioMode:vector ETV
attr interpolationmode sample-hold
attr source radioModeChanged
attr title "Radio mode, vector"
vector 34 FanetGpsrMixed.host[34].wlan[0].radio radioMode:vector ETV
attr interpolationmode sample-hold
attr source radioModeChanged
attr title "Radio mode, vector"
vector 35 FanetGpsrMixed.host[35].wlan[0].radio radioMode:vector ETV
attr interpolationmode sample-hold
attr source radioModeChanged
attr title "Radio mode, vector"
vector 36 FanetGpsrMixed.host[36].wlan[0].radio radioMode:vector ETV
attr interpolationmode sample-hold
attr source radioModeChanged
attr title "Radio mode, vector"
vector 37 FanetGpsrMixed.host[37].wlan[0].radio radioMode:vector ETV
attr interpolationmode sample-hold
attr source radioModeChanged
attr title "Radio mode, vector"
vector 38 FanetGpsrMixed.host[38].wlan[0].radio radioMode:vector ETV
attr interpolationmode sample-hold
attr source radioModeChanged
attr title "Radio mode, vector"
vector 39 FanetGpsrMixed.host[39].wlan[0].radio radioMode:vector ETV
attr interpolationmode sample-hold
attr source radioModeChanged
attr title "Radio mode, vector"
vector 40 FanetGpsrMixed.sybil[0].wlan[0].radio radioMode:vector ETV
attr interpolationmode sample-hold
attr source radioModeChanged
attr title "Radio mode, vector"
vector 41 FanetGpsrMixed.sybil[1].wlan[0].radio radioMode:vector ETV
attr interpolationmode sample-hold
attr source radioModeChanged
attr title "Radio mode, vector"
vector 42 FanetGpsrMixed.sybil[2].wlan[0].radio radioMode:vector ETV
attr interpolationmode sample-hold
attr source radioModeChanged
attr title "Radio mode, vector"
vector 43 FanetGpsrMixed.sybil[3].wlan[0].radio radioMode:vector ETV
attr interpolationmode sample-hold
attr source radioModeChanged
attr title "Radio mode, vector"
vector 44 FanetGpsrMixed.sybil[4].wlan[0].radio radioMode:vector ETV
attr interpolationmode sample-hold
attr source radioModeChanged
attr title "Radio mode, vector"
vector 45 FanetGpsrMixed.sybil[5].wlan[0].radio radioMode:vector ETV
attr interpolationmode sample-hold
attr source radioModeChanged
attr title "Radio mode, vector"
vector 46 FanetGpsrMixed.sybil[6].wlan[0].radio radioMode:vector ETV
attr interpolationmode sample-hold
attr source radioModeChanged
attr title "Radio mode, vector"
vector 47 FanetGpsrMixed.sybil[7].wlan[0].radio radioMode:vector ETV
attr interpolationmode sample-hold
attr source radioModeChanged
attr title "Radio mode, vector"
vector 48 FanetGpsrMixed.sybil[8].wlan[0].radio radioMode:vector ETV
attr interpolationmode sample-hold
attr source radioModeChanged
attr title "Radio mode, vector"
vector 49 FanetGpsrMixed.sybil[9].wlan[0].radio radioMode:vector ETV
attr interpolationmode sample-hold
attr source radioModeChanged
attr title "Radio mode, vector"
vector 50 FanetGpsrMixed.grayhole[0].wlan[0].radio radioMode:vector ETV
attr interpolationmode sample-hold
attr source radioModeChanged
attr title "Radio mode, vector"
vector 51 FanetGpsrMixed.grayhole[1].wlan[0].radio radioMode:vector ETV
attr interpolationmode sample-hold
attr source radioModeChanged
attr title "Radio mode, vector"
vector 52 FanetGpsrMixed.grayhole[2].wlan[0].radio radioMode:vector ETV
attr interpolationmode sample-hold
attr source radioModeChanged
attr title "Radio mode, vector"
vector 53 FanetGpsrMixed.grayhole[3].wlan[0].radio radioMode:vector ETV
attr interpolationmode sample-hold
attr source radioModeChanged
attr title "Radio mode, vector"
vector 54 FanetGpsrMixed.grayhole[4].wlan[0].radio radioMode:vector ETV
attr interpolationmode sample-hold
attr source radioModeChanged
attr title "Radio mode, vector"
vector 55 FanetGpsrMixed.grayhole[5].wlan[0].radio radioMode:vector ETV
attr interpolationmode sample-hold
attr source radioModeChanged
attr title "Radio mode, vector"
vector 56 FanetGpsrMixed.grayhole[6].wlan[0].radio radioMode:vector ETV
attr interpolationmode sample-hold
attr source radioModeChanged
attr title "Radio mode, vector"
vector 57 FanetGpsrMixed.grayhole[7].wlan[0].radio radioMode:vector ETV
attr interpolationmode sample-hold
attr source radioModeChanged
attr title "Radio mode, vector"
vector 58 FanetGpsrMixed.grayhole[8].wlan[0].radio radioMode:vector ETV
attr interpolationmode sample-hold
attr source radioModeChanged
attr title "Radio mode, vector"
vector 59 FanetGpsrMixed.grayhole[9].wlan[0].radio radioMode:vector ETV
attr interpolationmode sample-hold
attr source radioModeChanged
attr title "Radio mode, vector"
vector 60 FanetGpsrMixed.host[0].wlan[0].radio receptionState:vector ETV
attr interpolationmode sample-hold
attr source receptionStateChanged
attr title "Radio reception state, vector"
vector 61 FanetGpsrMixed.host[0].wlan[0].radio transmissionState:vector ETV
attr interpolationmode sample-hold
attr source transmissionStateChanged
attr title "Radio transmission state, vector"
vector 62 FanetGpsrMixed.host[1].wlan[0].radio receptionState:vector ETV
attr interpolationmode sample-hold
attr source receptionStateChanged
attr title "Radio reception state, vector"
vector 63 FanetGpsrMixed.host[1].wlan[0].radio transmissionState:vector ETV
attr interpolationmode sample-hold
attr source transmissionStateChanged
attr title "Radio transmission state, vector"
vector 64 FanetGpsrMixed.host[2].wlan[0].radio receptionState:vector ETV
attr interpolationmode sample-hold
attr source receptionStateChanged
attr title "Radio reception state, vector"
vector 65 FanetGpsrMixed.host[2].wlan[0].radio transmissionState:vector ETV
attr interpolationmode sample-hold
attr source transmissionStateChanged
attr title "Radio transmission state, vector"
vector 66 FanetGpsrMixed.host[3].wlan[0].radio receptionState:vector ETV
attr interpolationmode sample-hold
attr source receptionStateChanged
attr title "Radio reception state, vector"
vector 67 FanetGpsrMixed.host[3].wlan[0].radio transmissionState:vector ETV
attr interpolationmode sample-hold
attr source transmissionStateChanged
attr title "Radio transmission state, vector"
vector 68 FanetGpsrMixed.host[4].wlan[0].radio receptionState:vector ETV
attr interpolationmode sample-hold
attr source receptionStateChanged
attr title "Radio reception state, vector"
vector 69 FanetGpsrMixed.host[4].wlan[0].radio transmissionState:vector ETV
attr interpolationmode sample-hold
attr source transmissionStateChanged
attr title "Radio transmission state, vector"
vector 70 FanetGpsrMixed.host[5].wlan[0].radio receptionState:vector ETV
attr interpolationmode sample-hold
attr source receptionStateChanged
attr title "Radio reception state, vector"
vector 71 FanetGpsrMixed.host[5].wlan[0].radio transmissionState:vector ETV
attr interpolationmode sample-hold
attr source transmissionStateChanged
attr title "Radio transmission state, vector"
vector 72 FanetGpsrMixed.host[6].wlan[0].radio receptionState:vector ETV
attr interpolationmode sample-hold
attr source receptionStateChanged
attr title "Radio reception state, vector"
vector 73 FanetGpsrMixed.host[6].wlan[0].radio transmissionState:vector ETV
attr interpolationmode sample-hold
attr source transmissionStateChanged
attr title "Radio transmission state, vector"
vector 74 FanetGpsrMixed.host[7].wlan[0].radio receptionState:vector ETV
attr interpolationmode sample-hold
attr source receptionStateChanged
attr title "Radio reception state, vector"
vector 75 FanetGpsrMixed.host[7].wlan[0].radio transmissionState:vector ETV
attr interpolationmode sample-hold
attr source transmissionStateChanged
attr title "Radio transmission state, vector"
vector 76 FanetGpsrMixed.host[8].wlan[0].radio receptionState:vector ETV
attr interpolationmode sample-hold
attr source receptionStateChanged
attr title "Radio reception state, vector"
vector 77 FanetGpsrMixed.host[8].wlan[0].radio transmissionState:vector ETV
attr interpolationmode sample-hold
attr source transmissionStateChanged
attr title "Radio transmission state, vector"
vector 78 FanetGpsrMixed.host[9].wlan[0].radio receptionState:vector ETV
attr interpolationmode sample-hold
attr source receptionStateChanged
attr title "Radio reception state, vector"
vector 79 FanetGpsrMixed.host[9].wlan[0].radio transmissionState:vector ETV
attr interpolationmode sample-hold
attr source transmissionStateChanged
attr title "Radio transmission state, vector"
vector 80 FanetGpsrMixed.host[10].wlan[0].radio receptionState:vector ETV
attr interpolationmode sample-hold
attr source receptionStateChanged
attr title "Radio reception state, vector"
vector 81 FanetGpsrMixed.host[10].wlan[0].radio transmissionState:vector ETV
attr interpolationmode sample-hold
attr source transmissionStateChanged
attr title "Radio transmission state, vector"
vector 82 FanetGpsrMixed.host[11].wlan[0].radio receptionState:vector ETV
attr interpolationmode sample-hold
attr source receptionStateChanged
attr title "Radio reception state, vector"
vector 83 FanetGpsrMixed.host[11].wlan[0].radio transmissionState:vector ETV
attr interpolationmode sample-hold
attr source transmissionStateChanged
attr title "Radio transmission state, vector"
vector 84 FanetGpsrMixed.host[12].wlan[0].radio receptionState:vector ETV
attr interpolationmode sample-hold
attr source receptionStateChanged
attr title "Radio reception state, vector"
vector 85 FanetGpsrMixed.host[12].wlan[0].radio transmissionState:vector ETV
attr interpolationmode sample-hold
attr source transmissionStateChanged
attr title "Radio transmission state, vector"
vector 86 FanetGpsrMixed.host[13].wlan[0].radio receptionState:vector ETV
attr interpolationmode sample-hold
attr source receptionStateChanged
attr title "Radio reception state, vector"
vector 87 FanetGpsrMixed.host[13].wlan[0].radio transmissionState:vector ETV
attr interpolationmode sample-hold
attr source transmissionStateChanged
attr title "Radio transmission state, vector"
vector 88 FanetGpsrMixed.host[14].wlan[0].radio receptionState:vector ETV
attr interpolationmode sample-hold
attr source receptionStateChanged
attr title "Radio reception state, vector"
vector 89 FanetGpsrMixed.host[14].wlan[0].radio transmissionState:vector ETV
attr interpolationmode sample-hold
attr source transmissionStateChanged
attr title "Radio transmission state, vector"
vector 90 FanetGpsrMixed.host[15].wlan[0].radio receptionState:vector ETV
attr interpolationmode sample-hold
attr source receptionStateChanged
attr title "Radio reception state, vector"
vector 91 FanetGpsrMixed.host[15].wlan[0].radio transmissionState:vector ETV
attr interpolationmode sample-hold
attr source transmissionStateChanged
attr title "Radio transmission state, vector"
vector 92 FanetGpsrMixed.host[16].wlan[0].radio receptionState:vector ETV
attr interpolationmode sample-hold
attr source receptionStateChanged
attr title "Radio reception state, vector"
vector 93 FanetGpsrMixed.host[16].wlan[0].radio transmissionState:vector ETV
attr interpolationmode sample-hold
attr source transmissionStateChanged
attr title "Radio transmission state, vector"
vector 94 FanetGpsrMixed.host[17].wlan[0].radio receptionState:vector ETV
attr interpolationmode sample-hold
attr source receptionStateChanged
attr title "Radio reception state, vector"
vector 95 FanetGpsrMixed.host[17].wlan[0].radio transmissionState:vector ETV
attr interpolationmode sample-hold
attr source transmissionStateChanged
attr title "Radio transmission state, vector"
vector 96 FanetGpsrMixed.host[18].wlan[0].radio receptionState:vector ETV
attr interpolationmode sample-hold
attr source receptionStateChanged
attr title "Radio reception state, vector"
vector 97 FanetGpsrMixed.host[18].wlan[0].radio transmissionState:vector ETV
attr interpolationmode sample-hold
attr source transmissionStateChanged
attr title "Radio transmission state, vector"
vector 98 FanetGpsrMixed.host[19].wlan[0].radio receptionState:vector ETV
attr interpolationmode sample-hold
attr source receptionStateChanged
attr title "Radio reception state, vector"
vector 99 FanetGpsrMixed.host[19].wlan[0].radio transmissionState:vector ETV
attr interpolationmode sample-hold
attr source transmissionStateChanged
attr title "Radio transmission state, vector"
vector 100 FanetGpsrMixed.host[20].wlan[0].radio receptionState:vector ETV
attr interpolationmode sample-hold
attr source receptionStateChanged
attr title "Radio reception state, vector"
vector 101 FanetGpsrMixed.host[20].wlan[0].radio transmissionState:vector ETV
attr interpolationmode sample-hold
attr source transmissionStateChanged
attr title "Radio transmission state, vector"
vector 102 FanetGpsrMixed.host[21].wlan[0].radio receptionState:vector ETV
attr interpolationmode sample-hold
attr source receptionStateChanged
attr title "Radio reception state, vector"
vector 103 FanetGpsrMixed.host[21].wlan[0].radio transmissionState:vector ETV
attr interpolationmode sample-hold
attr source transmissionStateChanged
attr title "Radio transmission state, vector"
vector 104 FanetGpsrMixed.host[22].wlan[0].radio receptionState:vector ETV
attr interpolationmode sample-hold
attr source receptionStateChanged
attr title "Radio reception state, vector"
vector 105 FanetGpsrMixed.host[22].wlan[0].radio transmissionState:vector ETV
attr interpolationmode sample-hold
attr source transmissionStateChanged
attr title "Radio transmission state, vector"
vector 106 FanetGpsrMixed.host[23].wlan[0].radio receptionState:vector ETV
attr interpolationmode sample-hold
attr source receptionStateChanged
attr title "Radio reception state, vector"
vector 107 FanetGpsrMixed.host[23].wlan[0].radio transmissionState:vector ETV
attr interpolationmode sample-hold
attr source transmissionStateChanged
attr title "Radio transmission state, vector"
vector 108 FanetGpsrMixed.host[24].wlan[0].radio receptionState:vector ETV
attr interpolationmode sample-hold
attr source receptionStateChanged
attr title "Radio reception state, vector"
vector 109 FanetGpsrMixed.host[24].wlan[0].radio transmissionState:vector ETV
attr interpolationmode sample-hold
attr source transmissionStateChanged
attr title "Radio transmission state, vector"
vector 110 FanetGpsrMixed.host[25].wlan[0].radio receptionState:vector ETV
attr interpolationmode sample-hold
attr source receptionStateChanged
attr title "Radio reception state, vector"
vector 111 FanetGpsrMixed.host[25].wlan[0].radio transmissionState:vector ETV
attr interpolationmode sample-hold
attr source transmissionStateChanged
attr title "Radio transmission state, vector"
vector 112 FanetGpsrMixed.host[26].wlan[0].radio receptionState:vector ETV
attr interpolationmode sample-hold
attr source receptionStateChanged
attr title "Radio reception state, vector"
vector 113 FanetGpsrMixed.host[26].wlan[0].radio transmissionState:vector ETV
attr interpolationmode sample-hold
attr source transmissionStateChanged
attr title "Radio transmission state, vector"
vector 114 FanetGpsrMixed.host[27].wlan[0].radio receptionState:vector ETV
attr interpolationmode sample-hold
attr source receptionStateChanged
attr title "Radio reception state, vector"
vector 115 FanetGpsrMixed.host[27].wlan[0].radio transmissionState:vector ETV
attr interpolationmode sample-hold
attr source transmissionStateChanged
attr title "Radio transmission state, vector"
vector 116 FanetGpsrMixed.host[28].wlan[0].radio receptionState:vector ETV
attr interpolationmode sample-hold
attr source receptionStateChanged
attr title "Radio reception state, vector"
vector 117 FanetGpsrMixed.host[28].wlan[0].radio transmissionState:vector ETV
attr interpolationmode sample-hold
attr source transmissionStateChanged
attr title "Radio transmission state, vector"
vector 118 FanetGpsrMixed.host[29].wlan[0].radio receptionState:vector ETV
attr interpolationmode sample-hold
attr source receptionStateChanged
attr title "Radio reception state, vector"
vector 119 FanetGpsrMixed.host[29].wlan[0].radio transmissionState:vector ETV
attr interpolationmode sample-hold
attr source transmissionStateChanged
attr title "Radio transmission state, vector"
vector 120 FanetGpsrMixed.host[30].wlan[0].radio receptionState:vector ETV
attr interpolationmode sample-hold
attr source receptionStateChanged
attr title "Radio reception state, vector"
vector 121 FanetGpsrMixed.host[30].wlan[0].radio transmissionState:vector ETV
attr interpolationmode sample-hold
attr source transmissionStateChanged
attr title "Radio transmission state, vector"
vector 122 FanetGpsrMixed.host[31].wlan[0].radio receptionState:vector ETV
attr interpolationmode sample-hold
attr source receptionStateChanged
attr title "Radio reception state, vector"
vector 123 FanetGpsrMixed.host[31].wlan[0].radio transmissionState:vector ETV
attr interpolationmode sample-hold
attr source transmissionStateChanged
attr title "Radio transmission state, vector"
vector 124 FanetGpsrMixed.host[32].wlan[0].radio receptionState:vector ETV
attr interpolationmode sample-hold
attr source receptionStateChanged
attr title "Radio reception state, vector"
vector 125 FanetGpsrMixed.host[32].wlan[0].radio transmissionState:vector ETV
attr interpolationmode sample-hold
attr source transmissionStateChanged
attr title "Radio transmission state, vector"
vector 126 FanetGpsrMixed.host[33].wlan[0].radio receptionState:vector ETV
attr interpolationmode sample-hold
attr source receptionStateChanged
attr title "Radio reception state, vector"
vector 127 FanetGpsrMixed.host[33].wlan[0].radio transmissionState:vector ETV
attr interpolationmode sample-hold
attr source transmissionStateChanged
attr title "Radio transmission state, vector"
vector 128 FanetGpsrMixed.host[34].wlan[0].radio receptionState:vector ETV
attr interpolationmode sample-hold
attr source receptionStateChanged
attr title "Radio reception state, vector"
vector 129 FanetGpsrMixed.host[34].wlan[0].radio transmissionState:vector ETV
attr interpolationmode sample-hold
attr source transmissionStateChanged
attr title "Radio transmission state, vector"
vector 130 FanetGpsrMixed.host[35].wlan[0].radio receptionState:vector ETV
attr interpolationmode sample-hold
attr source receptionStateChanged
attr title "Radio reception state, vector"
vector 131 FanetGpsrMixed.host[35].wlan[0].radio transmissionState:vector ETV
attr interpolationmode sample-hold
attr source transmissionStateChanged
attr title "Radio transmission state, vector"
vector 132 FanetGpsrMixed.host[36].wlan[0].radio receptionState:vector ETV
attr interpolationmode sample-hold
attr source receptionStateChanged
attr title "Radio reception state, vector"
vector 133 FanetGpsrMixed.host[36].wlan[0].radio transmissionState:vector ETV
attr interpolationmode sample-hold
attr source transmissionStateChanged
attr title "Radio transmission state, vector"
vector 134 FanetGpsrMixed.host[37].wlan[0].radio receptionState:vector ETV
attr interpolationmode sample-hold
attr source receptionStateChanged
attr title "Radio reception state, vector"
vector 135 FanetGpsrMixed.host[37].wlan[0].radio transmissionState:vector ETV
attr interpolationmode sample-hold
attr source transmissionStateChanged
attr title "Radio transmission state, vector"
vector 136 FanetGpsrMixed.host[38].wlan[0].radio receptionState:vector ETV
attr interpolationmode sample-hold
attr source receptionStateChanged
attr title "Radio reception state, vector"
vector 137 FanetGpsrMixed.host[38].wlan[0].radio transmissionState:vector ETV
attr interpolationmode sample-hold
attr source transmissionStateChanged
attr title "Radio transmission state, vector"
vector 138 FanetGpsrMixed.host[39].wlan[0].radio receptionState:vector ETV
attr interpolationmode sample-hold
attr source receptionStateChanged
attr title "Radio reception state, vector"
vector 139 FanetGpsrMixed.host[39].wlan[0].radio transmissionState:vector ETV
attr interpolationmode sample-hold
attr source transmissionStateChanged
attr title "Radio transmission state, vector"
vector 140 FanetGpsrMixed.sybil[0].wlan[0].radio receptionState:vector ETV
attr interpolationmode sample-hold
attr source receptionStateChanged
attr title "Radio reception state, vector"
vector 141 FanetGpsrMixed.sybil[0].wlan[0].radio transmissionState:vector ETV
attr interpolationmode sample-hold
attr source transmissionStateChanged
attr title "Radio transmission state, vector"
vector 142 FanetGpsrMixed.sybil[1].wlan[0].radio receptionState:vector ETV
attr interpolationmode sample-hold
attr source receptionStateChanged
attr title "Radio reception state, vector"
vector 143 FanetGpsrMixed.sybil[1].wlan[0].radio transmissionState:vector ETV
attr interpolationmode sample-hold
attr source transmissionStateChanged
attr title "Radio transmission state, vector"
vector 144 FanetGpsrMixed.sybil[2].wlan[0].radio receptionState:vector ETV
attr interpolationmode sample-hold
attr source receptionStateChanged
attr title "Radio reception state, vector"
vector 145 FanetGpsrMixed.sybil[2].wlan[0].radio transmissionState:vector ETV
attr interpolationmode sample-hold
attr source transmissionStateChanged
attr title "Radio transmission state, vector"
vector 146 FanetGpsrMixed.sybil[3].wlan[0].radio receptionState:vector ETV
attr interpolationmode sample-hold
attr source receptionStateChanged
attr title "Radio reception state, vector"
vector 147 FanetGpsrMixed.sybil[3].wlan[0].radio transmissionState:vector ETV
attr interpolationmode sample-hold
attr source transmissionStateChanged
attr title "Radio transmission state, vector"
vector 148 FanetGpsrMixed.sybil[4].wlan[0].radio receptionState:vector ETV
attr interpolationmode sample-hold
attr source receptionStateChanged
attr title "Radio reception state, vector"
vector 149 FanetGpsrMixed.sybil[4].wlan[0].radio transmissionState:vector ETV
attr interpolationmode sample-hold
attr source transmissionStateChanged
attr title "Radio transmission state, vector"
vector 150 FanetGpsrMixed.sybil[5].wlan[0].radio receptionState:vector ETV
attr interpolationmode sample-hold
attr source receptionStateChanged
attr title "Radio reception state, vector"
vector 151 FanetGpsrMixed.sybil[5].wlan[0].radio transmissionState:vector ETV
attr interpolationmode sample-hold
attr source transmissionStateChanged
attr title "Radio transmission state, vector"
vector 152 FanetGpsrMixed.sybil[6].wlan[0].radio receptionState:vector ETV
attr interpolationmode sample-hold
attr source receptionStateChanged
attr title "Radio reception state, vector"
vector 153 FanetGpsrMixed.sybil[6].wlan[0].radio transmissionState:vector ETV
attr interpolationmode sample-hold
attr source transmissionStateChanged
attr title "Radio transmission state, vector"
vector 154 FanetGpsrMixed.sybil[7].wlan[0].radio receptionState:vector ETV
attr interpolationmode sample-hold
attr source receptionStateChanged
attr title "Radio reception state, vector"
vector 155 FanetGpsrMixed.sybil[7].wlan[0].radio transmissionState:vector ETV
attr interpolationmode sample-hold
attr source transmissionStateChanged
attr title "Radio transmission state, vector"
vector 156 FanetGpsrMixed.sybil[8].wlan[0].radio receptionState:vector ETV
attr interpolationmode sample-hold
attr source receptionStateChanged
attr title "Radio reception state, vector"
vector 157 FanetGpsrMixed.sybil[8].wlan[0].radio transmissionState:vector ETV
attr interpolationmode sample-hold
attr source transmissionStateChanged
attr title "Radio transmission state, vector"
vector 158 FanetGpsrMixed.sybil[9].wlan[0].radio receptionState:vector ETV
attr interpolationmode sample-hold
attr source receptionStateChanged
attr title "Radio reception state, vector"
vector 159 FanetGpsrMixed.sybil[9].wlan[0].radio transmissionState:vector ETV
attr interpolationmode sample-hold
attr source transmissionStateChanged
attr title "Radio transmission state, vector"
vector 160 FanetGpsrMixed.grayhole[0].wlan[0].radio receptionState:vector ETV
attr interpolationmode sample-hold
attr source receptionStateChanged
attr title "Radio reception state, vector"
vector 161 FanetGpsrMixed.grayhole[0].wlan[0].radio transmissionState:vector ETV
attr interpolationmode sample-hold
attr source transmissionStateChanged
attr title "Radio transmission state, vector"
vector 162 FanetGpsrMixed.grayhole[1].wlan[0].radio receptionState:vector ETV
attr interpolationmode sample-hold
attr source receptionStateChanged
attr title "Radio reception state, vector"
vector 163 FanetGpsrMixed.grayhole[1].wlan[0].radio transmissionState:vector ETV
attr interpolationmode sample-hold
attr source transmissionStateChanged
attr title "Radio transmission state, vector"
vector 164 FanetGpsrMixed.grayhole[2].wlan[0].radio receptionState:vector ETV
attr interpolationmode sample-hold
attr source receptionStateChanged
attr title "Radio reception state, vector"
vector 165 FanetGpsrMixed.grayhole[2].wlan[0].radio transmissionState:vector ETV
attr interpolationmode sample-hold
attr source transmissionStateChanged
attr title "Radio transmission state, vector"
vector 166 FanetGpsrMixed.grayhole[3].wlan[0].radio receptionState:vector ETV
attr interpolationmode sample-hold
attr source receptionStateChanged
attr title "Radio reception state, vector"
vector 167 FanetGpsrMixed.grayhole[3].wlan[0].radio transmissionState:vector ETV
attr interpolationmode sample-hold
attr source transmissionStateChanged
attr title "Radio transmission state, vector"
vector 168 FanetGpsrMixed.grayhole[4].wlan[0].radio receptionState:vector ETV
attr interpolationmode sample-hold
attr source receptionStateChanged
attr title "Radio reception state, vector"
vector 169 FanetGpsrMixed.grayhole[4].wlan[0].radio transmissionState:vector ETV
attr interpolationmode sample-hold
attr source transmissionStateChanged
attr title "Radio transmission state, vector"
vector 170 FanetGpsrMixed.grayhole[5].wlan[0].radio receptionState:vector ETV
attr interpolationmode sample-hold
attr source receptionStateChanged
attr title "Radio reception state, vector"
vector 171 FanetGpsrMixed.grayhole[5].wlan[0].radio transmissionState:vector ETV
attr interpolationmode sample-hold
attr source transmissionStateChanged
attr title "Radio transmission state, vector"
vector 172 FanetGpsrMixed.grayhole[6].wlan[0].radio receptionState:vector ETV
attr interpolationmode sample-hold
attr source receptionStateChanged
attr title "Radio reception state, vector"
vector 173 FanetGpsrMixed.grayhole[6].wlan[0].radio transmissionState:vector ETV
attr interpolationmode sample-hold
attr source transmissionStateChanged
attr title "Radio transmission state, vector"
vector 174 FanetGpsrMixed.grayhole[7].wlan[0].radio receptionState:vector ETV
attr interpolationmode sample-hold
attr source receptionStateChanged
attr title "Radio reception state, vector"
vector 175 FanetGpsrMixed.grayhole[7].wlan[0].radio transmissionState:vector ETV
attr interpolationmode sample-hold
attr source transmissionStateChanged
attr title "Radio transmission state, vector"
vector 176 FanetGpsrMixed.grayhole[8].wlan[0].radio receptionState:vector ETV
attr interpolationmode sample-hold
attr source receptionStateChanged
attr title "Radio reception state, vector"
vector 177 FanetGpsrMixed.grayhole[8].wlan[0].radio transmissionState:vector ETV
attr interpolationmode sample-hold
attr source transmissionStateChanged
attr title "Radio transmission state, vector"
vector 178 FanetGpsrMixed.grayhole[9].wlan[0].radio receptionState:vector ETV
attr interpolationmode sample-hold
attr source receptionStateChanged
attr title "Radio reception state, vector"
vector 179 FanetGpsrMixed.grayhole[9].wlan[0].radio transmissionState:vector ETV
attr interpolationmode sample-hold
attr source transmissionStateChanged
attr title "Radio transmission state, vector"
vector 180 FanetGpsrMixed.host[20].wlan[0].mac rcvdPkFromHl:vector(packetBytes) ETV
attr interpolationmode none
attr source packetReceivedFromUpper
attr title "packets received from higher layer, vector(packetBytes)"
vector 181 FanetGpsrMixed.host[20].wlan[0].mac.queue packetPushed:vector(packetBytes) ETV
attr interpolationmode none
attr title "packet pushed, vector(packetBytes)"
vector 182 FanetGpsrMixed.host[20].wlan[0].mac.queue queueLength:vector ETV
attr interpolationmode sample-hold
attr source "count(packetPushed) - count(packetPopped) - count(packetRemoved) - count(packetDropped)"
attr title "queue length, vector"
vector 183 FanetGpsrMixed.host[20].wlan[0].mac.queue packetPopped:vector(packetBytes) ETV
attr interpolationmode none
attr title "packet popped, vector(packetBytes)"
vector 184 FanetGpsrMixed.host[20].wlan[0].mac.queue queueingTime:vector ETV
attr interpolationmode none
attr source queueingTime(packetPopped)
attr title "queueing times, vector"
attr unit s
vector 185 FanetGpsrMixed.host[20].wlan[0].mac sentDownPk:vector(packetBytes) ETV
attr interpolationmode none
attr source packetSentToLower
attr title "packets sent to lower layer, vector(packetBytes)"
vector 186 FanetGpsrMixed.host[6].wlan[0].mac rcvdPkFromLl:vector(packetBytes) ETV
attr interpolationmode none
attr source packetReceivedFromLower
attr title "packets received from lower layer, vector(packetBytes)"
vector 187 FanetGpsrMixed.host[6].wlan[0].mac passedUpPk:vector(packetBytes) ETV
attr interpolationmode none
attr source packetSentToUpper
attr title "packets passed to higher layer, vector(packetBytes)"
vector 188 FanetGpsrMixed.grayhole[0].wlan[0].mac rcvdPkFromLl:vector(packetBytes) ETV
attr interpolationmode none
attr source packetReceivedFromLower
attr title "packets received from lower layer, vector(packetBytes)"
vector 189 FanetGpsrMixed.grayhole[0].wlan[0].mac passedUpPk:vector(packetBytes) ETV
attr interpolationmode none
attr source packetSentToUpper
attr title "packets passed to higher layer, vector(packetBytes)"
vector 190 FanetGpsrMixed.sybil[1].wlan[0].mac rcvdPkFromLl:vector(packetBytes) ETV
attr interpolationmode none
attr source packetReceivedFromLower
attr title "packets received from lower layer, vector(packetBytes)"
vector 191 FanetGpsrMixed.sybil[1].wlan[0].mac passedUpPk:vector(packetBytes) ETV
attr interpolationmode none
attr source packetSentToUpper
attr title "packets passed to higher layer, vector(packetBytes)"
vector 192 FanetGpsrMixed.grayhole[5].wlan[0].mac rcvdPkFromLl:vector(packetBytes) ETV
attr interpolationmode none
attr source packetReceivedFromLower
attr title "packets received from lower layer, vector(packetBytes)"
vector 193 FanetGpsrMixed.grayhole[5].wlan[0].mac passedUpPk:vector(packetBytes) ETV
attr interpolationmode none
attr source packetSentToUpper
attr title "packets passed to higher layer, vector(packetBytes)"
vector 194 FanetGpsrMixed.host[24].wlan[0].mac rcvdPkFromLl:vector(packetBytes) ETV
attr interpolationmode none
attr source packetReceivedFromLower
attr title "packets received from lower layer, vector(packetBytes)"
vector 195 FanetGpsrMixed.host[24].wlan[0].mac passedUpPk:vector(packetBytes) ETV
attr interpolationmode none
attr source packetSentToUpper
attr title "packets passed to higher layer, vector(packetBytes)"
vector 196 FanetGpsrMixed.host[33].wlan[0].mac rcvdPkFromLl:vector(packetBytes) ETV
attr interpolationmode none
attr source packetReceivedFromLower
attr title "packets received from lower layer, vector(packetBytes)"
vector 197 FanetGpsrMixed.host[33].wlan[0].mac passedUpPk:vector(packetBytes) ETV
attr interpolationmode none
attr source packetSentToUpper
attr title "packets passed to higher layer, vector(packetBytes)"
vector 198 FanetGpsrMixed.host[31].wlan[0].mac rcvdPkFromLl:vector(packetBytes) ETV
attr interpolationmode none
attr source packetReceivedFromLower
attr title "packets received from lower layer, vector(packetBytes)"
vector 199 FanetGpsrMixed.host[31].wlan[0].mac passedUpPk:vector(packetBytes) ETV
attr interpolationmode none
attr source packetSentToUpper
attr title "packets passed to higher layer, vector(packetBytes)"
vector 200 FanetGpsrMixed.sybil[7].wlan[0].mac rcvdPkFromLl:vector(packetBytes) ETV
attr interpolationmode none
attr source packetReceivedFromLower
attr title "packets received from lower layer, vector(packetBytes)"
vector 201 FanetGpsrMixed.sybil[7].wlan[0].mac passedUpPk:vector(packetBytes) ETV
attr interpolationmode none
attr source packetSentToUpper
attr title "packets passed to higher layer, vector(packetBytes)"
vector 202 FanetGpsrMixed.host[29].wlan[0].mac rcvdPkFromLl:vector(packetBytes) ETV
attr interpolationmode none
attr source packetReceivedFromLower
attr title "packets received from lower layer, vector(packetBytes)"
vector 203 FanetGpsrMixed.host[29].wlan[0].mac passedUpPk:vector(packetBytes) ETV
attr interpolationmode none
attr source packetSentToUpper
attr title "packets passed to higher layer, vector(packetBytes)"
vector 204 FanetGpsrMixed.host[26].wlan[0].mac rcvdPkFromLl:vector(packetBytes) ETV
attr interpolationmode none
attr source packetReceivedFromLower
attr title "packets received from lower layer, vector(packetBytes)"
vector 205 FanetGpsrMixed.host[26].wlan[0].mac passedUpPk:vector(packetBytes) ETV
attr interpolationmode none
attr source packetSentToUpper
attr title "packets passed to higher layer, vector(packetBytes)"
vector 206 FanetGpsrMixed.host[18].wlan[0].mac rcvdPkFromLl:vector(packetBytes) ETV
attr interpolationmode none
attr source packetReceivedFromLower
attr title "packets received from lower layer, vector(packetBytes)"
vector 207 FanetGpsrMixed.host[18].wlan[0].mac passedUpPk:vector(packetBytes) ETV
attr interpolationmode none
attr source packetSentToUpper
attr title "packets passed to higher layer, vector(packetBytes)"
vector 208 FanetGpsrMixed.host[11].wlan[0].mac rcvdPkFromLl:vector(packetBytes) ETV
attr interpolationmode none
attr source packetReceivedFromLower
attr title "packets received from lower layer, vector(packetBytes)"
vector 209 FanetGpsrMixed.host[11].wlan[0].mac passedUpPk:vector(packetBytes) ETV
attr interpolationmode none
attr source packetSentToUpper
attr title "packets passed to higher layer, vector(packetBytes)"
vector 210 FanetGpsrMixed.host[7].wlan[0].mac rcvdPkFromHl:vector(packetBytes) ETV
attr interpolationmode none
attr source packetReceivedFromUpper
attr title "packets received from higher layer, vector(packetBytes)"
vector 211 FanetGpsrMixed.host[7].wlan[0].mac.queue packetPushed:vector(packetBytes) ETV
attr interpolationmode none
attr title "packet pushed, vector(packetBytes)"
vector 212 FanetGpsrMixed.host[7].wlan[0].mac.queue queueLength:vector ETV
attr interpolationmode sample-hold
attr source "count(packetPushed) - count(packetPopped) - count(packetRemoved) - count(packetDropped)"
attr title "queue length, vector"
vector 213 FanetGpsrMixed.host[7].wlan[0].mac.queue packetPopped:vector(packetBytes) ETV
attr interpolationmode none
attr title "packet popped, vector(packetBytes)"
vector 214 FanetGpsrMixed.host[7].wlan[0].mac.queue queueingTime:vector ETV
attr interpolationmode none
attr source queueingTime(packetPopped)
attr title "queueing times, vector"
attr unit s
vector 215 FanetGpsrMixed.host[7].wlan[0].mac sentDownPk:vector(packetBytes) ETV
attr interpolationmode none
attr source packetSentToLower
attr title "packets sent to lower layer, vector(packetBytes)"
vector 216 FanetGpsrMixed.host[37].wlan[0].mac rcvdPkFromLl:vector(packetBytes) ETV
attr interpolationmode none
attr source packetReceivedFromLower
attr title "packets received from lower layer, vector(packetBytes)"
vector 217 FanetGpsrMixed.host[37].wlan[0].mac passedUpPk:vector(packetBytes) ETV
attr interpolationmode none
attr source packetSentToUpper
attr title "packets passed to higher layer, vector(packetBytes)"
vector 218 FanetGpsrMixed.host[35].wlan[0].mac rcvdPkFromLl:vector(packetBytes) ETV
attr interpolationmode none
attr source packetReceivedFromLower
attr title "packets received from lower layer, vector(packetBytes)"
vector 219 FanetGpsrMixed.host[35].wlan[0].mac passedUpPk:vector(packetBytes) ETV
attr interpolationmode none
attr source packetSentToUpper
attr title "packets passed to higher layer, vector(packetBytes)"
vector 220 FanetGpsrMixed.host[34].wlan[0].mac rcvdPkFromLl:vector(packetBytes) ETV
attr interpolationmode none
attr source packetReceivedFromLower
attr title "packets received from lower layer, vector(packetBytes)"
vector 221 FanetGpsrMixed.host[34].wlan[0].mac passedUpPk:vector(packetBytes) ETV
attr interpolationmode none
attr source packetSentToUpper
attr title "packets passed to higher layer, vector(packetBytes)"
vector 222 FanetGpsrMixed.host[0].wlan[0].mac rcvdPkFromLl:vector(packetBytes) ETV
attr interpolationmode none
attr source packetReceivedFromLower
attr title "packets received from lower layer, vector(packetBytes)"
vector 223 FanetGpsrMixed.host[0].wlan[0].mac passedUpPk:vector(packetBytes) ETV
attr interpolationmode none
attr source packetSentToUpper
attr title "packets passed to higher layer, vector(packetBytes)"
vector 224 FanetGpsrMixed.grayhole[4].wlan[0].mac rcvdPkFromLl:vector(packetBytes) ETV
attr interpolationmode none
attr source packetReceivedFromLower
attr title "packets received from lower layer, vector(packetBytes)"
vector 225 FanetGpsrMixed.grayhole[4].wlan[0].mac passedUpPk:vector(packetBytes) ETV
attr interpolationmode none
attr source packetSentToUpper
attr title "packets passed to higher layer, vector(packetBytes)"
vector 226 FanetGpsrMixed.host[3].wlan[0].mac rcvdPkFromLl:vector(packetBytes) ETV
attr interpolationmode none
attr source packetReceivedFromLower
attr title "packets received from lower layer, vector(packetBytes)"
vector 227 FanetGpsrMixed.host[3].wlan[0].mac passedUpPk:vector(packetBytes) ETV
attr interpolationmode none
attr source packetSentToUpper
attr title "packets passed to higher layer, vector(packetBytes)"
vector 228 FanetGpsrMixed.grayhole[6].wlan[0].mac rcvdPkFromLl:vector(packetBytes) ETV
attr interpolationmode none
attr source packetReceivedFromLower
attr title "packets received from lower layer, vector(packetBytes)"
vector 229 FanetGpsrMixed.grayhole[6].wlan[0].mac passedUpPk:vector(packetBytes) ETV
attr interpolationmode none
attr source packetSentToUpper
attr title "packets passed to higher layer, vector(packetBytes)"
vector 230 FanetGpsrMixed.grayhole[3].wlan[0].mac rcvdPkFromLl:vector(packetBytes) ETV
attr interpolationmode none
attr source packetReceivedFromLower
attr title "packets received from lower layer, vector(packetBytes)"
vector 231 FanetGpsrMixed.grayhole[3].wlan[0].mac passedUpPk:vector(packetBytes) ETV
attr interpolationmode none
attr source packetSentToUpper
attr title "packets passed to higher layer, vector(packetBytes)"
vector 232 FanetGpsrMixed.host[16].wlan[0].mac rcvdPkFromLl:vector(packetBytes) ETV
attr interpolationmode none
attr source packetReceivedFromLower
attr title "packets received from lower layer, vector(packetBytes)"
vector 233 FanetGpsrMixed.host[16].wlan[0].mac passedUpPk:vector(packetBytes) ETV
attr interpolationmode none
attr source packetSentToUpper
attr title "packets passed to higher layer, vector(packetBytes)"
vector 234 FanetGpsrMixed.sybil[5].wlan[0].mac rcvdPkFromHl:vector(packetBytes) ETV
attr interpolationmode none
attr source packetReceivedFromUpper
attr title "packets received from higher layer, vector(packetBytes)"
vector 235 FanetGpsrMixed.sybil[5].wlan[0].mac.queue packetPushed:vector(packetBytes) ETV
attr interpolationmode none
attr title "packet pushed, vector(packetBytes)"
vector 236 FanetGpsrMixed.sybil[5].wlan[0].mac.queue queueLength:vector ETV
attr interpolationmode sample-hold
attr source "count(packetPushed) - count(packetPopped) - count(packetRemoved) - count(packetDropped)"
attr title "queue length, vector"
vector 237 FanetGpsrMixed.sybil[5].wlan[0].mac.queue packetPopped:vector(packetBytes) ETV
attr interpolationmode none
attr title "packet popped, vector(packetBytes)"
vector 238 FanetGpsrMixed.sybil[5].wlan[0].mac.queue queueingTime:vector ETV
attr interpolationmode none
attr source queueingTime(packetPopped)
attr title "queueing times, vector"
attr unit s
vector 239 FanetGpsrMixed.sybil[5].wlan[0].mac sentDownPk:vector(packetBytes) ETV
attr interpolationmode none
attr source packetSentToLower
attr title "packets sent to lower layer, vector(packetBytes)"
vector 240 FanetGpsrMixed.host[28].wlan[0].mac rcvdPkFromLl:vector(packetBytes) ETV
attr interpolationmode none
attr source packetReceivedFromLower
attr title "packets received from lower layer, vector(packetBytes)"
vector 241 FanetGpsrMixed.host[28].wlan[0].mac passedUpPk:vector(packetBytes) ETV
attr interpolationmode none
attr source packetSentToUpper
attr title "packets passed to higher layer, vector(packetBytes)"
vector 242 FanetGpsrMixed.host[4].wlan[0].mac rcvdPkFromLl:vector(packetBytes) ETV
attr interpolationmode none
attr source packetReceivedFromLower
attr title "packets received from lower layer, vector(packetBytes)"
vector 243 FanetGpsrMixed.host[4].wlan[0].mac passedUpPk:vector(packetBytes) ETV
attr interpolationmode none
attr source packetSentToUpper
attr title "packets passed to higher layer, vector(packetBytes)"
vector 244 FanetGpsrMixed.host[9].wlan[0].mac rcvdPkFromLl:vector(packetBytes) ETV
attr interpolationmode none
attr source packetReceivedFromLower
attr title "packets received from lower layer, vector(packetBytes)"
vector 245 FanetGpsrMixed.host[9].wlan[0].mac passedUpPk:vector(packetBytes) ETV
attr interpolationmode none
attr source packetSentToUpper
attr title "packets passed to higher layer, vector(packetBytes)"
vector 246 FanetGpsrMixed.host[22].wlan[0].mac rcvdPkFromLl:vector(packetBytes) ETV
attr interpolationmode none
attr source packetReceivedFromLower
attr title "packets received from lower layer, vector(packetBytes)"
vector 247 FanetGpsrMixed.host[22].wlan[0].mac passedUpPk:vector(packetBytes) ETV
attr interpolationmode none
attr source packetSentToUpper
attr title "packets passed to higher layer, vector(packetBytes)"
vector 248 FanetGpsrMixed.grayhole[8].wlan[0].mac rcvdPkFromLl:vector(packetBytes) ETV
attr interpolationmode none
attr source packetReceivedFromLower
attr title "packets received from lower layer, vector(packetBytes)"
vector 249 FanetGpsrMixed.grayhole[8].wlan[0].mac passedUpPk:vector(packetBytes) ETV
attr interpolationmode none
attr source packetSentToUpper
attr title "packets passed to higher layer, vector(packetBytes)"
vector 250 FanetGpsrMixed.host[36].wlan[0].mac rcvdPkFromLl:vector(packetBytes) ETV
attr interpolationmode none
attr source packetReceivedFromLower
attr title "packets received from lower layer, vector(packetBytes)"
vector 251 FanetGpsrMixed.host[36].wlan[0].mac passedUpPk:vector(packetBytes) ETV
attr interpolationmode none
attr source packetSentToUpper
attr title "packets passed to higher layer, vector(packetBytes)"
vector 252 FanetGpsrMixed.host[6].wlan[0].mac rcvdPkFromHl:vector(packetBytes) ETV
attr interpolationmode none
attr source packetReceivedFromUpper
attr title "packets received from higher layer, vector(packetBytes)"
vector 253 FanetGpsrMixed.host[6].wlan[0].mac.queue packetPushed:vector(packetBytes) ETV
attr interpolationmode none
attr title "packet pushed, vector(packetBytes)"
vector 254 FanetGpsrMixed.host[6].wlan[0].mac.queue queueLength:vector ETV
attr interpolationmode sample-hold
attr source "count(packetPushed) - count(packetPopped) - count(packetRemoved) - count(packetDropped)"
attr title "queue length, vector"
vector 255 FanetGpsrMixed.host[6].wlan[0].mac.queue packetPopped:vector(packetBytes) ETV
attr interpolationmode none
attr title "packet popped, vector(packetBytes)"
vector 256 FanetGpsrMixed.host[6].wlan[0].mac.queue queueingTime:vector ETV
attr interpolationmode none
attr source queueingTime(packetPopped)
attr title "queueing times, vector"
attr unit s
vector 257 FanetGpsrMixed.host[6].wlan[0].mac sentDownPk:vector(packetBytes) ETV
attr interpolationmode none
attr source packetSentToLower
attr title "packets sent to lower layer, vector(packetBytes)"
vector 258 FanetGpsrMixed.host[20].wlan[0].mac rcvdPkFromLl:vector(packetBytes) ETV
attr interpolationmode none
attr source packetReceivedFromLower
attr title "packets received from lower layer, vector(packetBytes)"
vector 259 FanetGpsrMixed.host[20].wlan[0].mac passedUpPk:vector(packetBytes) ETV
attr interpolationmode none
attr source packetSentToUpper
attr title "packets passed to higher layer, vector(packetBytes)"
vector 260 FanetGpsrMixed.sybil[8].wlan[0].mac rcvdPkFromLl:vector(packetBytes) ETV
attr interpolationmode none
attr source packetReceivedFromLower
attr title "packets received from lower layer, vector(packetBytes)"
vector 261 FanetGpsrMixed.sybil[8].wlan[0].mac passedUpPk:vector(packetBytes) ETV
attr interpolationmode none
attr source packetSentToUpper
attr title "packets passed to higher layer, vector(packetBytes)"
vector 262 FanetGpsrMixed.grayhole[2].wlan[0].mac rcvdPkFromLl:vector(packetBytes) ETV
attr interpolationmode none
attr source packetReceivedFromLower
attr title "packets received from lower layer, vector(packetBytes)"
vector 263 FanetGpsrMixed.grayhole[2].wlan[0].mac passedUpPk:vector(packetBytes) ETV
attr interpolationmode none
attr source packetSentToUpper
attr title "packets passed to higher layer, vector(packetBytes)"
vector 264 FanetGpsrMixed.host[5].wlan[0].mac rcvdPkFromLl:vector(packetBytes) ETV
attr interpolationmode none
attr source packetReceivedFromLower
attr title "packets received from lower layer, vector(packetBytes)"
vector 265 FanetGpsrMixed.host[5].wlan[0].mac passedUpPk:vector(packetBytes) ETV
attr interpolationmode none
attr source packetSentToUpper
attr title "packets passed to higher layer, vector(packetBytes)"
vector 266 FanetGpsrMixed.host[7].wlan[0].mac rcvdPkFromLl:vector(packetBytes) ETV
attr interpolationmode none
attr source packetReceivedFromLower
attr title "packets received from lower layer, vector(packetBytes)"
vector 267 FanetGpsrMixed.host[7].wlan[0].mac passedUpPk:vector(packetBytes) ETV
attr interpolationmode none
attr source packetSentToUpper
attr title "packets passed to higher layer, vector(packetBytes)"
vector 268 FanetGpsrMixed.sybil[8].wlan[0].mac rcvdPkFromHl:vector(packetBytes) ETV
attr interpolationmode none
attr source packetReceivedFromUpper
attr title "packets received from higher layer, vector(packetBytes)"
vector 269 FanetGpsrMixed.sybil[8].wlan[0].mac.queue packetPushed:vector(packetBytes) ETV
attr interpolationmode none
attr title "packet pushed, vector(packetBytes)"
vector 270 FanetGpsrMixed.sybil[8].wlan[0].mac.queue queueLength:vector ETV
attr interpolationmode sample-hold
attr source "count(packetPushed) - count(packetPopped) - count(packetRemoved) - count(packetDropped)"
attr title "queue length, vector"
vector 271 FanetGpsrMixed.sybil[8].wlan[0].mac.queue packetPopped:vector(packetBytes) ETV
attr interpolationmode none
attr title "packet popped, vector(packetBytes)"
vector 272 FanetGpsrMixed.sybil[8].wlan[0].mac.queue queueingTime:vector ETV
attr interpolationmode none
attr source queueingTime(packetPopped)
attr title "queueing times, vector"
attr unit s
vector 273 FanetGpsrMixed.sybil[8].wlan[0].mac sentDownPk:vector(packetBytes) ETV
attr interpolationmode none
attr source packetSentToLower
attr title "packets sent to lower layer, vector(packetBytes)"
vector 274 FanetGpsrMixed.host[21].wlan[0].mac rcvdPkFromLl:vector(packetBytes) ETV
attr interpolationmode none
attr source packetReceivedFromLower
attr title "packets received from lower layer, vector(packetBytes)"
vector 275 FanetGpsrMixed.host[21].wlan[0].mac passedUpPk:vector(packetBytes) ETV
attr interpolationmode none
attr source packetSentToUpper
attr title "packets passed to higher layer, vector(packetBytes)"
vector 276 FanetGpsrMixed.sybil[3].wlan[0].mac rcvdPkFromLl:vector(packetBytes) ETV
attr interpolationmode none
attr source packetReceivedFromLower
attr title "packets received from lower layer, vector(packetBytes)"
vector 277 FanetGpsrMixed.sybil[3].wlan[0].mac passedUpPk:vector(packetBytes) ETV
attr interpolationmode none
attr source packetSentToUpper
attr title "packets passed to higher layer, vector(packetBytes)"
vector 278 FanetGpsrMixed.host[25].wlan[0].mac rcvdPkFromLl:vector(packetBytes) ETV
attr interpolationmode none
attr source packetReceivedFromLower
attr title "packets received from lower layer, vector(packetBytes)"
vector 279 FanetGpsrMixed.host[25].wlan[0].mac passedUpPk:vector(packetBytes) ETV
attr interpolationmode none
attr source packetSentToUpper
attr title "packets passed to higher layer, vector(packetBytes)"
vector 280 FanetGpsrMixed.host[27].wlan[0].mac rcvdPkFromHl:vector(packetBytes) ETV
attr interpolationmode none
attr source packetReceivedFromUpper
attr title "packets received from higher layer, vector(packetBytes)"
vector 281 FanetGpsrMixed.host[27].wlan[0].mac.queue packetPushed:vector(packetBytes) ETV
attr interpolationmode none
attr title "packet pushed, vector(packetBytes)"
vector 282 FanetGpsrMixed.host[27].wlan[0].mac.queue queueLength:vector ETV
attr interpolationmode sample-hold
attr source "count(packetPushed) - count(packetPopped) - count(packetRemoved) - count(packetDropped)"
attr title "queue length, vector"
vector 283 FanetGpsrMixed.host[27].wlan[0].mac.queue packetPopped:vector(packetBytes) ETV
attr interpolationmode none
attr title "packet popped, vector(packetBytes)"
vector 284 FanetGpsrMixed.host[27].wlan[0].mac.queue queueingTime:vector ETV
attr interpolationmode none
attr source queueingTime(packetPopped)
attr title "queueing times, vector"
attr unit s
vector 285 FanetGpsrMixed.host[27].wlan[0].mac sentDownPk:vector(packetBytes) ETV
attr interpolationmode none
attr source packetSentToLower
attr title "packets sent to lower layer, vector(packetBytes)"
vector 286 FanetGpsrMixed.host[13].wlan[0].mac rcvdPkFromLl:vector(packetBytes) ETV
attr interpolationmode none
attr source packetReceivedFromLower
attr title "packets received from lower layer, vector(packetBytes)"
vector 287 FanetGpsrMixed.host[13].wlan[0].mac passedUpPk:vector(packetBytes) ETV
attr interpolationmode none
attr source packetSentToUpper
attr title "packets passed to higher layer, vector(packetBytes)"
vector 288 FanetGpsrMixed.host[8].wlan[0].mac rcvdPkFromLl:vector(packetBytes) ETV
attr interpolationmode none
attr source packetReceivedFromLower
attr title "packets received from lower layer, vector(packetBytes)"
vector 289 FanetGpsrMixed.host[8].wlan[0].mac passedUpPk:vector(packetBytes) ETV
attr interpolationmode none
attr source packetSentToUpper
attr title "packets passed to higher layer, vector(packetBytes)"
vector 290 FanetGpsrMixed.host[17].wlan[0].mac rcvdPkFromLl:vector(packetBytes) ETV
attr interpolationmode none
attr source packetReceivedFromLower
attr title "packets received from lower layer, vector(packetBytes)"
vector 291 FanetGpsrMixed.host[17].wlan[0].mac passedUpPk:vector(packetBytes) ETV
attr interpolationmode none
attr source packetSentToUpper
attr title "packets passed to higher layer, vector(packetBytes)"
vector 292 FanetGpsrMixed.sybil[0].wlan[0].mac rcvdPkFromLl:vector(packetBytes) ETV
attr interpolationmode none
attr source packetReceivedFromLower
attr title "packets received from lower layer, vector(packetBytes)"
vector 293 FanetGpsrMixed.sybil[0].wlan[0].mac passedUpPk:vector(packetBytes) ETV
attr interpolationmode none
attr source packetSentToUpper
attr title "packets passed to higher layer, vector(packetBytes)"
vector 294 FanetGpsrMixed.host[32].wlan[0].mac rcvdPkFromLl:vector(packetBytes) ETV
attr interpolationmode none
attr source packetReceivedFromLower
attr title "packets received from lower layer, vector(packetBytes)"
vector 295 FanetGpsrMixed.host[32].wlan[0].mac passedUpPk:vector(packetBytes) ETV
attr interpolationmode none
attr source packetSentToUpper
attr title "packets passed to higher layer, vector(packetBytes)"
vector 296 FanetGpsrMixed.host[38].wlan[0].mac rcvdPkFromLl:vector(packetBytes) ETV
attr interpolationmode none
attr source packetReceivedFromLower
attr title "packets received from lower layer, vector(packetBytes)"
vector 297 FanetGpsrMixed.host[38].wlan[0].mac passedUpPk:vector(packetBytes) ETV
attr interpolationmode none
attr source packetSentToUpper
attr title "packets passed to higher layer, vector(packetBytes)"
vector 298 FanetGpsrMixed.host[10].wlan[0].mac rcvdPkFromLl:vector(packetBytes) ETV
attr interpolationmode none
attr source packetReceivedFromLower
attr title "packets received from lower layer, vector(packetBytes)"
vector 299 FanetGpsrMixed.host[10].wlan[0].mac passedUpPk:vector(packetBytes) ETV
attr interpolationmode none
attr source packetSentToUpper
attr title "packets passed to higher layer, vector(packetBytes)"
vector 300 FanetGpsrMixed.sybil[9].wlan[0].mac rcvdPkFromLl:vector(packetBytes) ETV
attr interpolationmode none
attr source packetReceivedFromLower
attr title "packets received from lower layer, vector(packetBytes)"
vector 301 FanetGpsrMixed.sybil[9].wlan[0].mac passedUpPk:vector(packetBytes) ETV
attr interpolationmode none
attr source packetSentToUpper
attr title "packets passed to higher layer, vector(packetBytes)"
vector 302 FanetGpsrMixed.host[19].wlan[0].mac rcvdPkFromLl:vector(packetBytes) ETV
attr interpolationmode none
attr source packetReceivedFromLower
attr title "packets received from lower layer, vector(packetBytes)"
vector 303 FanetGpsrMixed.host[19].wlan[0].mac passedUpPk:vector(packetBytes) ETV
attr interpolationmode none
attr source packetSentToUpper
attr title "packets passed to higher layer, vector(packetBytes)"
vector 304 FanetGpsrMixed.host[15].wlan[0].mac rcvdPkFromLl:vector(packetBytes) ETV
attr interpolationmode none
attr source packetReceivedFromLower
attr title "packets received from lower layer, vector(packetBytes)"
vector 305 FanetGpsrMixed.host[15].wlan[0].mac passedUpPk:vector(packetBytes) ETV
attr interpolationmode none
attr source packetSentToUpper
attr title "packets passed to higher layer, vector(packetBytes)"
vector 306 FanetGpsrMixed.host[14].wlan[0].mac rcvdPkFromLl:vector(packetBytes) ETV
attr interpolationmode none
attr source packetReceivedFromLower
attr title "packets received from lower layer, vector(packetBytes)"
vector 307 FanetGpsrMixed.host[14].wlan[0].mac passedUpPk:vector(packetBytes) ETV
attr interpolationmode none
attr source packetSentToUpper
attr title "packets passed to higher layer, vector(packetBytes)"
vector 308 FanetGpsrMixed.grayhole[6].wlan[0].mac rcvdPkFromHl:vector(packetBytes) ETV
attr interpolationmode none
attr source packetReceivedFromUpper
attr title "packets received from higher layer, vector(packetBytes)"
vector 309 FanetGpsrMixed.grayhole[6].wlan[0].mac.queue packetPushed:vector(packetBytes) ETV
attr interpolationmode none
attr title "packet pushed, vector(packetBytes)"
vector 310 FanetGpsrMixed.grayhole[6].wlan[0].mac.queue queueLength:vector ETV
attr interpolationmode sample-hold
attr source "count(packetPushed) - count(packetPopped) - count(packetRemoved) - count(packetDropped)"
attr title "queue length, vector"
vector 311 FanetGpsrMixed.grayhole[6].wlan[0].mac.queue packetPopped:vector(packetBytes) ETV
attr interpolationmode none
attr title "packet popped, vector(packetBytes)"
vector 312 FanetGpsrMixed.grayhole[6].wlan[0].mac.queue queueingTime:vector ETV
attr interpolationmode none
attr source queueingTime(packetPopped)
attr title "queueing times, vector"
attr unit s
vector 313 FanetGpsrMixed.grayhole[6].wlan[0].mac sentDownPk:vector(packetBytes) ETV
attr interpolationmode none
attr source packetSentToLower
attr title "packets sent to lower layer, vector(packetBytes)"
vector 314 FanetGpsrMixed.sybil[7].wlan[0].mac rcvdPkFromHl:vector(packetBytes) ETV
attr interpolationmode none
attr source packetReceivedFromUpper
attr title "packets received from higher layer, vector(packetBytes)"
vector 315 FanetGpsrMixed.sybil[7].wlan[0].mac.queue packetPushed:vector(packetBytes) ETV
attr interpolationmode none
attr title "packet pushed, vector(packetBytes)"
vector 316 FanetGpsrMixed.sybil[7].wlan[0].mac.queue queueLength:vector ETV
attr interpolationmode sample-hold
attr source "count(packetPushed) - count(packetPopped) - count(packetRemoved) - count(packetDropped)"
attr title "queue length, vector"
vector 317 FanetGpsrMixed.sybil[7].wlan[0].mac.queue packetPopped:vector(packetBytes) ETV
attr interpolationmode none
attr title "packet popped, vector(packetBytes)"
vector 318 FanetGpsrMixed.sybil[7].wlan[0].mac.queue queueingTime:vector ETV
attr interpolationmode none
attr source queueingTime(packetPopped)
attr title "queueing times, vector"
attr unit s
vector 319 FanetGpsrMixed.sybil[7].wlan[0].mac sentDownPk:vector(packetBytes) ETV
attr interpolationmode none
attr source packetSentToLower
attr title "packets sent to lower layer, vector(packetBytes)"
vector 320 FanetGpsrMixed.sybil[1].wlan[0].mac rcvdPkFromHl:vector(packetBytes) ETV
attr interpolationmode none
attr source packetReceivedFromUpper
attr title "packets received from higher layer, vector(packetBytes)"
vector 321 FanetGpsrMixed.sybil[1].wlan[0].mac.queue packetPushed:vector(packetBytes) ETV
attr interpolationmode none
attr title "packet pushed, vector(packetBytes)"
vector 322 FanetGpsrMixed.sybil[1].wlan[0].mac.queue queueLength:vector ETV
attr interpolationmode sample-hold
attr source "count(packetPushed) - count(packetPopped) - count(packetRemoved) - count(packetDropped)"
attr title "queue length, vector"
vector 323 FanetGpsrMixed.sybil[1].wlan[0].mac.queue packetPopped:vector(packetBytes) ETV
attr interpolationmode none
attr title "packet popped, vector(packetBytes)"
vector 324 FanetGpsrMixed.sybil[1].wlan[0].mac.queue queueingTime:vector ETV
attr interpolationmode none
attr source queueingTime(packetPopped)
attr title "queueing times, vector"
attr unit s
vector 325 FanetGpsrMixed.sybil[1].wlan[0].mac sentDownPk:vector(packetBytes) ETV
attr interpolationmode none
attr source packetSentToLower
attr title "packets sent to lower layer, vector(packetBytes)"
vector 326 FanetGpsrMixed.sybil[4].wlan[0].mac rcvdPkFromLl:vector(packetBytes) ETV
attr interpolationmode none
attr source packetReceivedFromLower
attr title "packets received from lower layer, vector(packetBytes)"
vector 327 FanetGpsrMixed.sybil[4].wlan[0].mac passedUpPk:vector(packetBytes) ETV
attr interpolationmode none
attr source packetSentToUpper
attr title "packets passed to higher layer, vector(packetBytes)"
vector 328 FanetGpsrMixed.grayhole[4].wlan[0].mac rcvdPkFromHl:vector(packetBytes) ETV
attr interpolationmode none
attr source packetReceivedFromUpper
attr title "packets received from higher layer, vector(packetBytes)"
vector 329 FanetGpsrMixed.grayhole[4].wlan[0].mac.queue packetPushed:vector(packetBytes) ETV
attr interpolationmode none
attr title "packet pushed, vector(packetBytes)"
vector 330 FanetGpsrMixed.grayhole[4].wlan[0].mac.queue queueLength:vector ETV
attr interpolationmode sample-hold
attr source "count(packetPushed) - count(packetPopped) - count(packetRemoved) - count(packetDropped)"
attr title "queue length, vector"
vector 331 FanetGpsrMixed.grayhole[4].wlan[0].mac.queue packetPopped:vector(packetBytes) ETV
attr interpolationmode none
attr title "packet popped, vector(packetBytes)"
vector 332 FanetGpsrMixed.grayhole[4].wlan[0].mac.queue queueingTime:vector ETV
attr interpolationmode none
attr source queueingTime(packetPopped)
attr title "queueing times, vector"
attr unit s
vector 333 FanetGpsrMixed.grayhole[4].wlan[0].mac sentDownPk:vector(packetBytes) ETV
attr interpolationmode none
attr source packetSentToLower
attr title "packets sent to lower layer, vector(packetBytes)"
vector 334 FanetGpsrMixed.host[1].wlan[0].mac rcvdPkFromLl:vector(packetBytes) ETV
attr interpolationmode none
attr source packetReceivedFromLower
attr title "packets received from lower layer, vector(packetBytes)"
vector 335 FanetGpsrMixed.host[1].wlan[0].mac passedUpPk:vector(packetBytes) ETV
attr interpolationmode none
attr source packetSentToUpper
attr title "packets passed to higher layer, vector(packetBytes)"
vector 336 FanetGpsrMixed.grayhole[9].wlan[0].mac rcvdPkFromLl:vector(packetBytes) ETV
attr interpolationmode none
attr source packetReceivedFromLower
attr title "packets received from lower layer, vector(packetBytes)"
vector 337 FanetGpsrMixed.grayhole[9].wlan[0].mac passedUpPk:vector(packetBytes) ETV
attr interpolationmode none
attr source packetSentToUpper
attr title "packets passed to higher layer, vector(packetBytes)"
vector 338 FanetGpsrMixed.host[33].wlan[0].mac rcvdPkFromHl:vector(packetBytes) ETV
attr interpolationmode none
attr source packetReceivedFromUpper
attr title "packets received from higher layer, vector(packetBytes)"
vector 339 FanetGpsrMixed.host[33].wlan[0].mac.queue packetPushed:vector(packetBytes) ETV
attr interpolationmode none
attr title "packet pushed, vector(packetBytes)"
vector 340 FanetGpsrMixed.host[33].wlan[0].mac.queue queueLength:vector ETV
attr interpolationmode sample-hold
attr source "count(packetPushed) - count(packetPopped) - count(packetRemoved) - count(packetDropped)"
attr title "queue length, vector"
vector 341 FanetGpsrMixed.host[33].wlan[0].mac.queue packetPopped:vector(packetBytes) ETV
attr interpolationmode none
attr title "packet popped, vector(packetBytes)"
vector 342 FanetGpsrMixed.host[33].wlan[0].mac.queue queueingTime:vector ETV
attr interpolationmode none
attr source queueingTime(packetPopped)
attr title "queueing times, vector"
attr unit s
vector 343 FanetGpsrMixed.host[33].wlan[0].mac sentDownPk:vector(packetBytes) ETV
attr interpolationmode none
attr source packetSentToLower
attr title "packets sent to lower layer, vector(packetBytes)"
vector 344 FanetGpsrMixed.host[1].wlan[0].mac rcvdPkFromHl:vector(packetBytes) ETV
attr interpolationmode none
attr source packetReceivedFromUpper
attr title "packets received from higher layer, vector(packetBytes)"
vector 345 FanetGpsrMixed.host[1].wlan[0].mac.queue packetPushed:vector(packetBytes) ETV
attr interpolationmode none
attr title "packet pushed, vector(packetBytes)"
vector 346 FanetGpsrMixed.host[1].wlan[0].mac.queue queueLength:vector ETV
attr interpolationmode sample-hold
attr source "count(packetPushed) - count(packetPopped) - count(packetRemoved) - count(packetDropped)"
attr title "queue length, vector"
vector 347 FanetGpsrMixed.host[1].wlan[0].mac.queue packetPopped:vector(packetBytes) ETV
attr interpolationmode none
attr title "packet popped, vector(packetBytes)"
vector 348 FanetGpsrMixed.host[1].wlan[0].mac.queue queueingTime:vector ETV
attr interpolationmode none
attr source queueingTime(packetPopped)
attr title "queueing times, vector"
attr unit s
vector 349 FanetGpsrMixed.host[1].wlan[0].mac sentDownPk:vector(packetBytes) ETV
attr interpolationmode none
attr source packetSentToLower
attr title "packets sent to lower layer, vector(packetBytes)"
vector 350 FanetGpsrMixed.host[30].wlan[0].mac rcvdPkFromLl:vector(packetBytes) ETV
attr interpolationmode none
attr source packetReceivedFromLower
attr title "packets received from lower layer, vector(packetBytes)"
vector 351 FanetGpsrMixed.host[30].wlan[0].mac passedUpPk:vector(packetBytes) ETV
attr interpolationmode none
attr source packetSentToUpper
attr title "packets passed to higher layer, vector(packetBytes)"
vector 352 FanetGpsrMixed.sybil[2].wlan[0].mac rcvdPkFromLl:vector(packetBytes) ETV
attr interpolationmode none
attr source packetReceivedFromLower
attr title "packets received from lower layer, vector(packetBytes)"
vector 353 FanetGpsrMixed.sybil[2].wlan[0].mac passedUpPk:vector(packetBytes) ETV
attr interpolationmode none
attr source packetSentToUpper
attr title "packets passed to higher layer, vector(packetBytes)"
vector 354 FanetGpsrMixed.sybil[6].wlan[0].mac rcvdPkFromLl:vector(packetBytes) ETV
attr interpolationmode none
attr source packetReceivedFromLower
attr title "packets received from lower layer, vector(packetBytes)"
vector 355 FanetGpsrMixed.sybil[6].wlan[0].mac passedUpPk:vector(packetBytes) ETV
attr interpolationmode none
attr source packetSentToUpper
attr title "packets passed to higher layer, vector(packetBytes)"
vector 356 FanetGpsrMixed.grayhole[7].wlan[0].mac rcvdPkFromLl:vector(packetBytes) ETV
attr interpolationmode none
attr source packetReceivedFromLower
attr title "packets received from lower layer, vector(packetBytes)"
vector 357 FanetGpsrMixed.grayhole[7].wlan[0].mac passedUpPk:vector(packetBytes) ETV
attr interpolationmode none
attr source packetSentToUpper
attr title "packets passed to higher layer, vector(packetBytes)"
vector 358 FanetGpsrMixed.host[23].wlan[0].mac rcvdPkFromLl:vector(packetBytes) ETV
attr interpolationmode none
attr source packetReceivedFromLower
attr title "packets received from lower layer, vector(packetBytes)"
vector 359 FanetGpsrMixed.host[23].wlan[0].mac passedUpPk:vector(packetBytes) ETV
attr interpolationmode none
attr source packetSentToUpper
attr title "packets passed to higher layer, vector(packetBytes)"
vector 360 FanetGpsrMixed.host[8].wlan[0].mac rcvdPkFromHl:vector(packetBytes) ETV
attr interpolationmode none
attr source packetReceivedFromUpper
attr title "packets received from higher layer, vector(packetBytes)"
vector 361 FanetGpsrMixed.host[8].wlan[0].mac.queue packetPushed:vector(packetBytes) ETV
attr interpolationmode none
attr title "packet pushed, vector(packetBytes)"
vector 362 FanetGpsrMixed.host[8].wlan[0].mac.queue queueLength:vector ETV
attr interpolationmode sample-hold
attr source "count(packetPushed) - count(packetPopped) - count(packetRemoved) - count(packetDropped)"
attr title "queue length, vector"
vector 363 FanetGpsrMixed.host[8].wlan[0].mac.queue packetPopped:vector(packetBytes) ETV
attr interpolationmode none
attr title "packet popped, vector(packetBytes)"
vector 364 FanetGpsrMixed.host[8].wlan[0].mac.queue queueingTime:vector ETV
attr interpolationmode none
attr source queueingTime(packetPopped)
attr title "queueing times, vector"
attr unit s
vector 365 FanetGpsrMixed.host[8].wlan[0].mac sentDownPk:vector(packetBytes) ETV
attr interpolationmode none
attr source packetSentToLower
attr title "packets sent to lower layer, vector(packetBytes)"
vector 366 FanetGpsrMixed.host[27].wlan[0].mac rcvdPkFromLl:vector(packetBytes) ETV
attr interpolationmode none
attr source packetReceivedFromLower
attr title "packets received from lower layer, vector(packetBytes)"
vector 367 FanetGpsrMixed.host[27].wlan[0].mac passedUpPk:vector(packetBytes) ETV
attr interpolationmode none
attr source packetSentToUpper
attr title "packets passed to higher layer, vector(packetBytes)"
vector 368 FanetGpsrMixed.host[36].wlan[0].mac rcvdPkFromHl:vector(packetBytes) ETV
attr interpolationmode none
attr source packetReceivedFromUpper
attr title "packets received from higher layer, vector(packetBytes)"
vector 369 FanetGpsrMixed.host[36].wlan[0].mac.queue packetPushed:vector(packetBytes) ETV
attr interpolationmode none
attr title "packet pushed, vector(packetBytes)"
vector 370 FanetGpsrMixed.host[36].wlan[0].mac.queue queueLength:vector ETV
attr interpolationmode sample-hold
attr source "count(packetPushed) - count(packetPopped) - count(packetRemoved) - count(packetDropped)"
attr title "queue length, vector"
vector 371 FanetGpsrMixed.host[36].wlan[0].mac.queue packetPopped:vector(packetBytes) ETV
attr interpolationmode none
attr title "packet popped, vector(packetBytes)"
vector 372 FanetGpsrMixed.host[36].wlan[0].mac.queue queueingTime:vector ETV
attr interpolationmode none
attr source queueingTime(packetPopped)
attr title "queueing times, vector"
attr unit s
vector 373 FanetGpsrMixed.host[36].wlan[0].mac sentDownPk:vector(packetBytes) ETV
attr interpolationmode none
attr source packetSentToLower
attr title "packets sent to lower layer, vector(packetBytes)"
vector 374 FanetGpsrMixed.sybil[5].wlan[0].mac rcvdPkFromLl:vector(packetBytes) ETV
attr interpolationmode none
attr source packetReceivedFromLower
attr title "packets received from lower layer, vector(packetBytes)"
vector 375 FanetGpsrMixed.sybil[5].wlan[0].mac passedUpPk:vector(packetBytes) ETV
attr interpolationmode none
attr source packetSentToUpper
attr title "packets passed to higher layer, vector(packetBytes)"
vector 376 FanetGpsrMixed.host[39].wlan[0].mac rcvdPkFromHl:vector(packetBytes) ETV
attr interpolationmode none
attr source packetReceivedFromUpper
attr title "packets received from higher layer, vector(packetBytes)"
vector 377 FanetGpsrMixed.host[39].wlan[0].mac.queue packetPushed:vector(packetBytes) ETV
attr interpolationmode none
attr title "packet pushed, vector(packetBytes)"
vector 378 FanetGpsrMixed.host[39].wlan[0].mac.queue queueLength:vector ETV
attr interpolationmode sample-hold
attr source "count(packetPushed) - count(packetPopped) - count(packetRemoved) - count(packetDropped)"
attr title "queue length, vector"
vector 379 FanetGpsrMixed.host[39].wlan[0].mac.queue packetPopped:vector(packetBytes) ETV
attr interpolationmode none
attr title "packet popped, vector(packetBytes)"
vector 380 FanetGpsrMixed.host[39].wlan[0].mac.queue queueingTime:vector ETV
attr interpolationmode none
attr source queueingTime(packetPopped)
attr title "queueing times, vector"
attr unit s
vector 381 FanetGpsrMixed.host[39].wlan[0].mac sentDownPk:vector(packetBytes) ETV
attr interpolationmode none
attr source packetSentToLower
attr title "packets sent to lower layer, vector(packetBytes)"
vector 382 FanetGpsrMixed.host[5].wlan[0].mac rcvdPkFromHl:vector(packetBytes) ETV
attr interpolationmode none
attr source packetReceivedFromUpper
attr title "packets received from higher layer, vector(packetBytes)"
vector 383 FanetGpsrMixed.host[5].wlan[0].mac.queue packetPushed:vector(packetBytes) ETV
attr interpolationmode none
attr title "packet pushed, vector(packetBytes)"
vector 384 FanetGpsrMixed.host[5].wlan[0].mac.queue queueLength:vector ETV
attr interpolationmode sample-hold
attr source "count(packetPushed) - count(packetPopped) - count(packetRemoved) - count(packetDropped)"
attr title "queue length, vector"
vector 385 FanetGpsrMixed.host[5].wlan[0].mac.queue packetPopped:vector(packetBytes) ETV
attr interpolationmode none
attr title "packet popped, vector(packetBytes)"
vector 386 FanetGpsrMixed.host[5].wlan[0].mac.queue queueingTime:vector ETV
attr interpolationmode none
attr source queueingTime(packetPopped)
attr title "queueing times, vector"
attr unit s
vector 387 FanetGpsrMixed.host[5].wlan[0].mac sentDownPk:vector(packetBytes) ETV
attr interpolationmode none
attr source packetSentToLower
attr title "packets sent to lower layer, vector(packetBytes)"
vector 388 FanetGpsrMixed.host[23].wlan[0].mac rcvdPkFromHl:vector(packetBytes) ETV
attr interpolationmode none
attr source packetReceivedFromUpper
attr title "packets received from higher layer, vector(packetBytes)"
vector 389 FanetGpsrMixed.host[23].wlan[0].mac.queue packetPushed:vector(packetBytes) ETV
attr interpolationmode none
attr title "packet pushed, vector(packetBytes)"
vector 390 FanetGpsrMixed.host[23].wlan[0].mac.queue queueLength:vector ETV
attr interpolationmode sample-hold
[...]
448	1080122 331 3789 104802 0.811860220507 10.321766742738 11 120 120 1320 158400
449	1080453 268 3945 98583 0.813692397438 9.872977434424 9 104 104 936 97344
450	1080721 268 3945 98583 0.813692397438 9.872977434424 9 104 104 936 97344
451	1080989 500 3945 98583 0.813692397438 9.872977434424 18 0 1 9 9
452	1081489 268 3945 98583 0.813692397438 9.872977434424 9 104 104 936 97344
453	1081757 250 3945 98583 0.813692397438 9.872977434424 9 0 0 0 0
454	1082007 268 3945 98583 0.813692397438 9.872977434424 9 120 120 1080 129600
455	1082275 821 4098 103135 0.820017144782 10.234625256852 27 104 1068 18232 18368960
456	1083096 821 4098 103135 0.820017144782 10.234625256852 27 104 1068 18232 18368960
457	1083917 1502 4098 103135 0.820017144782 10.234625256852 54 0 1 27 27
458	1085419 821 4098 103135 0.820017144782 10.234625256852 27 104 1068 18232 18368960
459	1086240 751 4098 103135 0.820017144782 10.234625256852 27 0 0 0 0
460	1086991 821 4098 103135 0.820017144782 10.234625256852 27 120 1084 18664 18959296
461	1087812 331 4274 102821 0.824682972627 10.212847432121 11 104 104 1144 118976
462	1088143 331 4274 102821 0.824682972627 10.212847432121 11 104 104 1144 118976
463	1088474 618 4274 102821 0.824682972627 10.212847432121 22 0 1 11 11
464	1089092 331 4274 102821 0.824682972627 10.212847432121 11 104 104 1144 118976
465	1089423 309 4274 102821 0.824682972627 10.212847432121 11 0 0 0 0
466	1089732 331 4274 102821 0.824682972627 10.212847432121 11 120 120 1320 158400
467	1090063 300 4438 101843 0.874169978546 10.102693477411 10 104 104 1040 108160
468	1090363 300 4438 101843 0.874169978546 10.102693477411 10 104 104 1040 108160
469	1090663 560 4438 101843 0.874169978546 10.102693477411 20 0 1 10 10
470	1091223 300 4438 101843 0.874169978546 10.102693477411 10 104 104 1040 108160
471	1091523 280 4438 101843 0.874169978546 10.102693477411 10 0 0 0 0
472	1091803 300 4438 101843 0.874169978546 10.102693477411 10 120 120 1200 144000
473	1092103 600 4501 105691 0.874214504133 10.390416300613 20 120 120 2400 288000
474	1092703 600 4501 105691 0.874214504133 10.390416300613 20 104 104 2080 216320
475	1093303 300 4576 107585 0.883463891223 10.569563825382 10 104 104 1040 108160
476	1093603 300 4576 107585 0.883463891223 10.569563825382 10 104 104 1040 108160
477	1093903 560 4576 107585 0.883463891223 10.569563825382 20 0 1 10 10
478	1094463 300 4576 107585 0.883463891223 10.569563825382 10 104 104 1040 108160
479	1094763 280 4576 107585 0.883463891223 10.569563825382 10 0 0 0 0
480	1095043 300 4576 107585 0.883463891223 10.569563825382 10 120 120 1200 144000
481	1095343 297 4794 100978 0.924685465172 10.014430627694 10 104 104 1040 108160
482	1095640 297 4794 100978 0.924685465172 10.014430627694 10 104 104 1040 108160
483	1095937 554 4794 100978 0.924685465172 10.014430627694 20 0 1 10 10
484	1096491 297 4794 100978 0.924685465172 10.014430627694 10 104 104 1040 108160
485	1096788 277 4794 100978 0.924685465172 10.014430627694 10 0 0 0 0
486	1097065 297 4794 100978 0.924685465172 10.014430627694 10 120 120 1200 144000
487	1097362 955 4885 107531 0.924730331879 10.564136377344 32 120 120 3840 460800
488	1098317 955 4885 107531 0.924730331879 10.564136377344 32 104 104 3328 346112
489	1099272 300 4947 106345 0.925451537361 10.515815340447 10 104 104 1040 108160
490	1099572 300 4947 106345 0.925451537361 10.515815340447 10 104 104 1040 108160
491	1099872 560 4947 106345 0.925451537361 10.515815340447 20 0 1 10 10
492	1100432 300 4947 106345 0.925451537361 10.515815340447 10 104 104 1040 108160
493	1100732 280 4947 106345 0.925451537361 10.515815340447 10 0 0 0 0
494	1101012 300 4947 106345 0.925451537361 10.515815340447 10 120 120 1200 144000
495	1101312 296 5120 98917 0.9560146234 9.893956471236 10 104 104 1040 108160
496	1101608 296 5120 98917 0.9560146234 9.893956471236 10 104 104 1040 108160
497	1101904 552 5120 98917 0.9560146234 9.893956471236 20 0 1 10 10
498	1102456 296 5120 98917 0.9560146234 9.893956471236 10 104 104 1040 108160
499	1102752 276 5120 98917 0.9560146234 9.893956471236 10 0 0 0 0
500	1103028 296 5120 98917 0.9560146234 9.893956471236 10 120 120 1200 144000
501	1103324 1493 5183 107218 0.956059151372 10.55754263073 50 120 120 6000 720000
502	1104817 1493 5183 107218 0.956059151372 10.55754263073 50 104 104 5200 540800
503	1106310 299 5249 99430 0.956129772356 9.951272875302 10 104 104 1040 108160
504	1106609 299 5249 99430 0.956129772356 9.951272875302 10 104 104 1040 108160
505	1106908 558 5249 99430 0.956129772356 9.951272875302 20 0 1 10 10
506	1107466 299 5249 99430 0.956129772356 9.951272875302 10 104 104 1040 108160
507	1107765 279 5249 99430 0.956129772356 9.951272875302 10 0 0 0 0
508	1108044 299 5249 99430 0.956129772356 9.951272875302 10 120 120 1200 144000
509	1108343 329 5399 101133 0.963575422764 10.02331845113 11 104 104 1144 118976
510	1108672 329 5399 101133 0.963575422764 10.02331845113 11 104 104 1144 118976
511	1109001 614 5399 101133 0.963575422764 10.02331845113 22 0 1 11 11
512	1109615 329 5399 101133 0.963575422764 10.02331845113 11 104 104 1144 118976
513	1109944 307 5399 101133 0.963575422764 10.02331845113 11 0 0 0 0
514	1110251 329 5399 101133 0.963575422764 10.02331845113 11 120 120 1320 158400
515	1110580 1560 5474 106739 0.963620032832 10.544686200482 52 104 104 5408 562432
516	1112140 299 5713 106672 0.971751575824 10.544641396029 10 104 104 1040 108160
517	1112439 299 5713 106672 0.971751575824 10.544641396029 10 104 104 1040 108160
518	1112738 558 5713 106672 0.971751575824 10.544641396029 20 0 1 10 10
519	1113296 299 5713 106672 0.971751575824 10.544641396029 10 104 104 1040 108160
520	1113595 279 5713 106672 0.971751575824 10.544641396029 10 0 0 0 0
521	1113874 299 5713 106672 0.971751575824 10.544641396029 10 120 120 1200 144000
522	1114173 327 5854 99273 0.983408617554 9.93386530946 11 104 104 1144 118976
523	1114500 327 5854 99273 0.983408617554 9.93386530946 11 104 104 1144 118976
524	1114827 610 5854 99273 0.983408617554 9.93386530946 22 0 1 11 11
525	1115437 327 5854 99273 0.983408617554 9.93386530946 11 104 104 1144 118976
526	1115764 305 5854 99273 0.983408617554 9.93386530946 11 0 0 0 0
527	1116069 327 5854 99273 0.983408617554 9.93386530946 11 120 120 1320 158400
528	1116396 298 6068 100831 1.018200711347 10.012205824255 10 104 104 1040 108160
529	1116694 298 6068 100831 1.018200711347 10.012205824255 10 104 104 1040 108160
530	1116992 556 6068 100831 1.018200711347 10.012205824255 20 0 1 10 10
531	1117548 298 6068 100831 1.018200711347 10.012205824255 10 104 104 1040 108160
532	1117846 278 6068 100831 1.018200711347 10.012205824255 10 0 0 0 0
533	1118124 298 6068 100831 1.018200711347 10.012205824255 10 120 120 1200 144000
534	1118422 299 6218 106171 1.019711192232 10.512920046691 10 104 104 1040 108160
535	1118721 299 6218 106171 1.019711192232 10.512920046691 10 104 104 1040 108160
536	1119020 558 6218 106171 1.019711192232 10.512920046691 20 0 1 10 10
537	1119578 299 6218 106171 1.019711192232 10.512920046691 10 104 104 1040 108160
538	1119877 279 6218 106171 1.019711192232 10.512920046691 10 0 0 0 0
539	1120156 299 6218 106171 1.019711192232 10.512920046691 10 120 120 1200 144000
540	1120455 301 6394 102616 1.086784345331 10.190515976167 10 104 104 1040 108160
541	1120756 301 6394 102616 1.086784345331 10.190515976167 10 104 104 1040 108160
542	1121057 562 6394 102616 1.086784345331 10.190515976167 20 0 1 10 10
543	1121619 301 6394 102616 1.086784345331 10.190515976167 10 104 104 1040 108160
544	1121920 281 6394 102616 1.086784345331 10.190515976167 10 0 0 0 0
545	1122201 301 6394 102616 1.086784345331 10.190515976167 10 120 120 1200 144000
546	1122502 300 6538 105592 1.088317117421 10.390371344984 10 104 104 1040 108160
547	1122802 300 6538 105592 1.088317117421 10.390371344984 10 104 104 1040 108160
548	1123102 560 6538 105592 1.088317117421 10.390371344984 20 0 1 10 10
549	1123662 300 6538 105592 1.088317117421 10.390371344984 10 104 104 1040 108160
550	1123962 280 6538 105592 1.088317117421 10.390371344984 10 0 0 0 0
551	1124242 300 6538 105592 1.088317117421 10.390371344984 10 120 120 1200 144000
552	1124542 300 6753 106519 1.128981848946 10.516960247652 10 104 104 1040 108160
553	1124842 300 6753 106519 1.128981848946 10.516960247652 10 104 104 1040 108160
554	1125142 560 6753 106519 1.128981848946 10.516960247652 20 0 1 10 10
555	1125702 300 6753 106519 1.128981848946 10.516960247652 10 104 104 1040 108160
556	1126002 280 6753 106519 1.128981848946 10.516960247652 10 0 0 0 0
557	1126282 300 6753 106519 1.128981848946 10.516960247652 10 120 120 1200 144000
558	1126582 329 7063 103457 1.145784599707 10.264021823418 11 104 104 1144 118976
559	1126911 329 7063 103457 1.145784599707 10.264021823418 11 104 104 1144 118976
560	1127240 614 7063 103457 1.145784599707 10.264021823418 22 0 1 11 11
561	1127854 329 7063 103457 1.145784599707 10.264021823418 11 104 104 1144 118976
562	1128183 307 7063 103457 1.145784599707 10.264021823418 11 0 0 0 0
563	1128490 329 7063 103457 1.145784599707 10.264021823418 11 120 120 1320 158400
564	1128819 297 7219 97116 1.146264435025 9.705203537596 10 104 104 1040 108160
565	1129116 297 7219 97116 1.146264435025 9.705203537596 10 104 104 1040 108160
566	1129413 554 7219 97116 1.146264435025 9.705203537596 20 0 1 10 10
567	1129967 297 7219 97116 1.146264435025 9.705203537596 10 104 104 1040 108160
568	1130264 277 7219 97116 1.146264435025 9.705203537596 10 0 0 0 0
569	1130541 297 7219 97116 1.146264435025 9.705203537596 10 120 120 1200 144000
570	1130838 267 7396 93718 1.163078203565 9.371209234467 9 104 104 936 97344
571	1131105 267 7396 93718 1.163078203565 9.371209234467 9 104 104 936 97344
572	1131372 498 7396 93718 1.163078203565 9.371209234467 18 0 1 9 9
573	1131870 267 7396 93718 1.163078203565 9.371209234467 9 104 104 936 97344
574	1132137 249 7396 93718 1.163078203565 9.371209234467 9 0 0 0 0
575	1132386 267 7396 93718 1.163078203565 9.371209234467 9 120 120 1080 129600
576	1132653 300 7562 104961 1.179879454896 10.328969523309 10 104 104 1040 108160
577	1132953 300 7562 104961 1.179879454896 10.328969523309 10 104 104 1040 108160
578	1133253 560 7562 104961 1.179879454896 10.328969523309 20 0 1 10 10
579	1133813 300 7562 104961 1.179879454896 10.328969523309 10 104 104 1040 108160
580	1134113 280 7562 104961 1.179879454896 10.328969523309 10 0 0 0 0
581	1134393 300 7562 104961 1.179879454896 10.328969523309 10 120 120 1200 144000
582	1134693 300 7700 108139 1.187488272786 10.659904504427 10 104 104 1040 108160
583	1134993 300 7700 108139 1.187488272786 10.659904504427 10 104 104 1040 108160
584	1135293 560 7700 108139 1.187488272786 10.659904504427 20 0 1 10 10
585	1135853 300 7700 108139 1.187488272786 10.659904504427 10 104 104 1040 108160
586	1136153 280 7700 108139 1.187488272786 10.659904504427 10 0 0 0 0
587	1136433 300 7700 108139 1.187488272786 10.659904504427 10 120 120 1200 144000
588	1136733 301 7894 105809 1.211583821569 10.407533282414 10 104 104 1040 108160
589	1137034 301 7894 105809 1.211583821569 10.407533282414 10 104 104 1040 108160
590	1137335 562 7894 105809 1.211583821569 10.407533282414 20 0 1 10 10
591	1137897 301 7894 105809 1.211583821569 10.407533282414 10 104 104 1040 108160
592	1138198 281 7894 105809 1.211583821569 10.407533282414 10 0 0 0 0
593	1138479 301 7894 105809 1.211583821569 10.407533282414 10 120 120 1200 144000
594	1138780 299 8054 97291 1.230442180531 9.726708940231 10 104 104 1040 108160
595	1139079 299 8054 97291 1.230442180531 9.726708940231 10 104 104 1040 108160
596	1139378 558 8054 97291 1.230442180531 9.726708940231 20 0 1 10 10
597	1139936 299 8054 97291 1.230442180531 9.726708940231 10 104 104 1040 108160
598	1140235 279 8054 97291 1.230442180531 9.726708940231 10 0 0 0 0
599	1140514 299 8054 97291 1.230442180531 9.726708940231 10 120 120 1200 144000
600	1140813 299 8219 100444 1.23085580254 9.976916590008 10 104 104 1040 108160
601	1141112 299 8219 100444 1.23085580254 9.976916590008 10 104 104 1040 108160
602	1141411 558 8219 100444 1.23085580254 9.976916590008 20 0 1 10 10
603	1141969 299 8219 100444 1.23085580254 9.976916590008 10 104 104 1040 108160
604	1142268 279 8219 100444 1.23085580254 9.976916590008 10 0 0 0 0
605	1142547 299 8219 100444 1.23085580254 9.976916590008 10 120 120 1200 144000
606	1142846 493 8577 100220 1.236062036749 9.970892683456 16 1084 1084 17344 18800896
607	1143339 269 8658 102980 1.258378651924 10.215699123917 9 104 104 936 97344
608	1143608 269 8658 102980 1.258378651924 10.215699123917 9 104 104 936 97344
609	1143877 502 8658 102980 1.258378651924 10.215699123917 18 0 1 9 9
610	1144379 269 8658 102980 1.258378651924 10.215699123917 9 104 104 936 97344
611	1144648 251 8658 102980 1.258378651924 10.215699123917 9 0 0 0 0
612	1144899 269 8658 102980 1.258378651924 10.215699123917 9 120 120 1080 129600
613	1145168 330 8812 103610 1.288739421405 10.26420445461 11 104 104 1144 118976
614	1145498 330 8812 103610 1.288739421405 10.26420445461 11 104 104 1144 118976
615	1145828 616 8812 103610 1.288739421405 10.26420445461 22 0 1 11 11
616	1146444 330 8812 103610 1.288739421405 10.26420445461 11 104 104 1144 118976
617	1146774 308 8812 103610 1.288739421405 10.26420445461 11 0 0 0 0
618	1147082 330 8812 103610 1.288739421405 10.26420445461 11 120 120 1320 158400
619	1147412 330 8974 105105 1.298046830343 10.333612296731 11 104 104 1144 118976
620	1147742 330 8974 105105 1.298046830343 10.333612296731 11 104 104 1144 118976
621	1148072 616 8974 105105 1.298046830343 10.333612296731 22 0 1 11 11
622	1148688 330 8974 105105 1.298046830343 10.333612296731 11 104 104 1144 118976
623	1149018 308 8974 105105 1.298046830343 10.333612296731 11 0 0 0 0
624	1149326 330 8974 105105 1.298046830343 10.333612296731 11 120 120 1320 158400
625	1149656 269 9185 103313 1.307580264984 10.255491242512 9 104 104 936 97344
626	1149925 269 9185 103313 1.307580264984 10.255491242512 9 104 104 936 97344
627	1150194 502 9185 103313 1.307580264984 10.255491242512 18 0 1 9 9
628	1150696 269 9185 103313 1.307580264984 10.255491242512 9 104 104 936 97344
629	1150965 251 9185 103313 1.307580264984 10.255491242512 9 0 0 0 0
630	1151216 269 9185 103313 1.307580264984 10.255491242512 9 120 120 1080 129600
631	1151485 330 9488 107428 1.33104845765 10.564091404203 11 104 104 1144 118976
632	1151815 330 9488 107428 1.33104845765 10.564091404203 11 104 104 1144 118976
633	1152145 616 9488 107428 1.33104845765 10.564091404203 22 0 1 11 11
634	1152761 330 9488 107428 1.33104845765 10.564091404203 11 104 104 1144 118976
635	1153091 308 9488 107428 1.33104845765 10.564091404203 11 0 0 0 0
636	1153399 330 9488 107428 1.33104845765 10.564091404203 11 120 120 1320 158400
637	1153729 299 9994 104643 1.363855601288 10.321537368698 10 104 104 1040 108160
638	1154028 299 9994 104643 1.363855601288 10.321537368698 10 104 104 1040 108160
639	1154327 558 9994 104643 1.363855601288 10.321537368698 20 0 1 10 10
640	1154885 299 9994 104643 1.363855601288 10.321537368698 10 104 104 1040 108160
641	1155184 279 9994 104643 1.363855601288 10.321537368698 10 0 0 0 0
642	1155463 299 9994 104643 1.363855601288 10.321537368698 10 120 120 1200 144000
643	1155762 271 10157 104096 1.372650657548 10.284321789166 9 104 104 936 97344
644	1156033 271 10157 104096 1.372650657548 10.284321789166 9 104 104 936 97344
645	1156304 506 10157 104096 1.372650657548 10.284321789166 18 0 1 9 9
646	1156810 271 10157 104096 1.372650657548 10.284321789166 9 104 104 936 97344
647	1157081 253 10157 104096 1.372650657548 10.284321789166 9 0 0 0 0
648	1157334 271 10157 104096 1.372650657548 10.284321789166 9 120 120 1080 129600
649	1157605 302 10311 101628 1.380297604483 10.060746258358 10 104 104 1040 108160
650	1157907 302 10311 101628 1.380297604483 10.060746258358 10 104 104 1040 108160
651	1158209 564 10311 101628 1.380297604483 10.060746258358 20 0 1 10 10
652	1158773 302 10311 101628 1.380297604483 10.060746258358 10 104 104 1040 108160
653	1159075 282 10311 101628 1.380297604483 10.060746258358 10 0 0 0 0
654	1159357 302 10311 101628 1.380297604483 10.060746258358 10 120 120 1200 144000
655	1159659 302 10464 107123 1.381585404044 10.557497769362 10 104 104 1040 108160
656	1159961 302 10464 107123 1.381585404044 10.557497769362 10 104 104 1040 108160
657	1160263 564 10464 107123 1.381585404044 10.557497769362 20 0 1 10 10
658	1160827 302 10464 107123 1.381585404044 10.557497769362 10 104 104 1040 108160
659	1161129 282 10464 107123 1.381585404044 10.557497769362 10 0 0 0 0
660	1161411 302 10464 107123 1.381585404044 10.557497769362 10 120 120 1200 144000
661	1161713 331 10624 103775 1.38533766428 10.280124310406 11 104 104 1144 118976
662	1162044 331 10624 103775 1.38533766428 10.280124310406 11 104 104 1144 118976
663	1162375 618 10624 103775 1.38533766428 10.280124310406 22 0 1 11 11
664	1162993 331 10624 103775 1.38533766428 10.280124310406 11 104 104 1144 118976
665	1163324 309 10624 103775 1.38533766428 10.280124310406 11 0 0 0 0
666	1163633 331 10624 103775 1.38533766428 10.280124310406 11 120 120 1320 158400
667	1163964 270 10852 97834 1.404424977256 9.840316620888 9 104 104 936 97344
668	1164234 270 10852 97834 1.404424977256 9.840316620888 9 104 104 936 97344
669	1164504 504 10852 97834 1.404424977256 9.840316620888 18 0 1 9 9
670	1165008 270 10852 97834 1.404424977256 9.840316620888 9 104 104 936 97344
671	1165278 252 10852 97834 1.404424977256 9.840316620888 9 0 0 0 0
672	1165530 270 10852 97834 1.404424977256 9.840316620888 9 120 120 1080 129600
673	1165800 300 10984 107282 1.406418088824 10.559787582838 10 104 104 1040 108160
674	1166100 300 10984 107282 1.406418088824 10.559787582838 10 104 104 1040 108160
675	1166400 560 10984 107282 1.406418088824 10.559787582838 20 0 1 10 10
676	1166960 300 10984 107282 1.406418088824 10.559787582838 10 104 104 1040 108160
677	1167260 280 10984 107282 1.406418088824 10.559787582838 10 0 0 0 0
678	1167540 300 10984 107282 1.406418088824 10.559787582838 10 120 120 1200 144000
679	1167840 268 11781 104251 1.4473705946 10.293694389986 9 104 104 936 97344
680	1168108 268 11781 104251 1.4473705946 10.293694389986 9 104 104 936 97344
681	1168376 500 11781 104251 1.4473705946 10.293694389986 18 0 1 9 9
682	1168876 268 11781 104251 1.4473705946 10.293694389986 9 104 104 936 97344
683	1169144 250 11781 104251 1.4473705946 10.293694389986 9 0 0 0 0
684	1169394 268 11781 104251 1.4473705946 10.293694389986 9 120 120 1080 129600
685	1169662 301 11959 105258 1.45279165823 10.338312544161 10 104 104 1040 108160
686	1169963 301 11959 105258 1.45279165823 10.338312544161 10 104 104 1040 108160
687	1170264 562 11959 105258 1.45279165823 10.338312544161 20 0 1 10 10
688	1170826 301 11959 105258 1.45279165823 10.338312544161 10 104 104 1040 108160
689	1171127 281 11959 105258 1.45279165823 10.338312544161 10 0 0 0 0
690	1171408 301 11959 105258 1.45279165823 10.338312544161 10 120 120 1200 144000
691	1171709 332 12134 106813 1.457450855989 10.551629500463 11 104 104 1144 118976
692	1172041 332 12134 106813 1.457450855989 10.551629500463 11 104 104 1144 118976
693	1172373 620 12134 106813 1.457450855989 10.551629500463 22 0 1 11 11
694	1172993 332 12134 106813 1.457450855989 10.551629500463 11 104 104 1144 118976
695	1173325 310 12134 106813 1.457450855989 10.551629500463 11 0 0 0 0
696	1173635 332 12134 106813 1.457450855989 10.551629500463 11 120 120 1320 158400
697	1173967 30 21586 21586 2.525756006128 2.525756006128 1 120 120 120 14400
698	1173997 30 21592 21592 2.525756272932 2.525756272932 1 120 120 120 14400
699	1174027 30 21598 21598 2.525756412167 2.525756412167 1 120 120 120 14400
700	1174057 29 21608 21608 2.52575663038 2.52575663038 1 120 120 120 14400
vector 701 FanetGpsrMixed.host[0].app[0] throughput:vector ETV
attr source throughput(packetReceived)
attr title "throughput, vector"
attr unit bps
428	1174238 166 108288 108288 10 10.671810323943 8 0 160000 160000 25600000000
701	1174404 1925 108288 108288 0.1 10.671810323943 107 0 0 0 0

