file 17802753 1632385555                                        
version 2
run _3D_Turtle_Normal-0-20210917-12:39:44-9852
attr configname _3D_Turtle_Normal
attr datetime 20210917-12:39:44
attr experiment _3D_Turtle_Normal
attr inifile omnetpp.ini
attr iterationvars ""
attr iterationvarsf ""
attr measurement ""
attr network FanetGpsrNormal
attr processid 9852
attr repetition 0
attr replication #0
attr resultdir results
attr runnumber 0
attr seedset 0
param *.host[*].osgModel "\"3d/drone.ive.100.scale.0,0,90.rot\""
param *.sybil[*].osgModel "\"3d/glider.osgb.100.scale.0,0,90.rot\""
param *.grayhole[*].osgModel "\"3d/glider.osgb.100.scale.0,0,90.rot\""
param *.host*.mobility.typename "\"TurtleMobility\""
param *.host*.mobility.turtleScript "xmldoc(\"config.xml\")"
param *.sybil*.mobility.typename "\"TurtleMobility\""
param *.sybil*.mobility.turtleScript "xmldoc(\"config.xml\")"
param *.grayhole*.mobility.typename "\"TurtleMobility\""
param *.grayhole*.mobility.turtleScript "xmldoc(\"config.xml\")"
param *.host[0].numApps 1
param *.host[0].app[0].typename "\"UdpBasicApp\""
param *.host[0].app[0].destAddresses "\"host[20]\""
param *.host[0].app[0].destPort 5000
param *.host[0].app[0].messageLength 1000B
param *.host[0].app[0].sendInterval exponential(1s)
param *.host[0].app[0].packetName "\"UDPData\""
param *.host[20].numApps 1
param *.host[20].app[0].typename "\"UdpSink\""
param *.host[20].app[0].localPort 5000
param **.wlan[*].bitrate 24Mbps
param *.configurator.addStaticRoutes false
param **.netmaskRoutes "\"\""
param **.arp.typename "\"GlobalArp\""
param **.planarizationMode "\"RNG\""
param **.beaconInterval 1s
param *.host*.wlan[0].typename "\"AckingWirelessInterface\""
param *.host*.wlan[0].radio.transmitter.communicationRange 300m
param *.sybil*.wlan[0].typename "\"AckingWirelessInterface\""
param *.sybil*.wlan[0].radio.transmitter.communicationRange 300m
param *.grayhole*.wlan[0].typename "\"AckingWirelessInterface\""
param *.grayhole*.wlan[0].radio.transmitter.communicationRange 300m
param *.visualizer.osgVisualizer.typename "\"IntegratedOsgVisualizer\""
param *.visualizer.osgVisualizer.sceneVisualizer.typename "\"SceneOsgEarthVisualizer\""
param *.visualizer.osgVisualizer.sceneVisualizer.mapFile "\"unical.earth\""
param *.coordinateSystem.sceneLongitude 16.2215deg
param *.coordinateSystem.sceneLatitude 39.3701deg
param *.visualizer.osgVisualizer.sceneVisualizer.clearColor "\"skyblue\""
param *.visualizer.osgVisualizer.sceneVisualizer.sceneShading false
param *.visualizer.osgVisualizer.sceneVisualizer.sceneColor "\"#000000\""
param *.visualizer.osgVisualizer.sceneVisualizer.sceneOpacity 0.0
param *.visualizer.osgVisualizer.sceneVisualizer.sceneImageSize 4000m
param *.visualizer.osgVisualizer.sceneVisualizer.axisLength 2000m
param *.visualizer.osgVisualizer.sceneVisualizer.sceneMinX 0m
param *.visualizer.osgVisualizer.sceneVisualizer.sceneMinY 0m
param *.visualizer.osgVisualizer.sceneVisualizer.sceneMinZ 0m
param *.visualizer.osgVisualizer.sceneVisualizer.sceneMaxX 1700m
param *.visualizer.osgVisualizer.sceneVisualizer.sceneMaxY 300m
param *.visualizer.osgVisualizer.sceneVisualizer.sceneMaxZ 20m
param *.coordinateSystem.sceneAltitude 20m
param *.coordinateSystem.sceneHeading 169deg
param *.visualizer.osgVisualizer.networkNodeVisualizer.displayModuleName false
param *.visualizer.*.mobilityVisualizer.displayMobility true
param *.visualizer.*.mobilityVisualizer.displayPositions true
param *.visualizer.*.mobilityVisualizer.displayOrientations true
param *.visualizer.*.mobilityVisualizer.displayVelocities true
param *.visualizer.*.mobilityVisualizer.displayMovementTrails true
param *.visualizer.*.mobilityVisualizer.animationSpeed 1
param **.constraintAreaMinX 0m
param **.constraintAreaMinY 0m
param **.constraintAreaMinZ 200m
param **.constraintAreaMaxX 1500m
param **.constraintAreaMaxY 800m
param **.constraintAreaMaxZ 400m

vector 0 FanetGpsrNormal.host[0].wlan[0].radio radioMode:vector ETV
attr interpolationmode sample-hold
attr source radioModeChanged
attr title "Radio mode, vector"
0	310582 27 0 0 0 0 3 0 4 4 16
vector 1 FanetGpsrNormal.host[1].wlan[0].radio radioMode:vector ETV
attr interpolationmode sample-hold
attr source radioModeChanged
attr title "Radio mode, vector"
1	310609 27 0 0 0 0 3 0 4 4 16
vector 2 FanetGpsrNormal.host[2].wlan[0].radio radioMode:vector ETV
attr interpolationmode sample-hold
attr source radioModeChanged
attr title "Radio mode, vector"
2	310636 27 0 0 0 0 3 0 4 4 16
vector 3 FanetGpsrNormal.host[3].wlan[0].radio radioMode:vector ETV
attr interpolationmode sample-hold
attr source radioModeChanged
attr title "Radio mode, vector"
3	310663 27 0 0 0 0 3 0 4 4 16
vector 4 FanetGpsrNormal.host[4].wlan[0].radio radioMode:vector ETV
attr interpolationmode sample-hold
attr source radioModeChanged
attr title "Radio mode, vector"
4	310690 27 0 0 0 0 3 0 4 4 16
vector 5 FanetGpsrNormal.host[5].wlan[0].radio radioMode:vector ETV
attr interpolationmode sample-hold
attr source radioModeChanged
attr title "Radio mode, vector"
5	310717 27 0 0 0 0 3 0 4 4 16
vector 6 FanetGpsrNormal.host[6].wlan[0].radio radioMode:vector ETV
attr interpolationmode sample-hold
attr source radioModeChanged
attr title "Radio mode, vector"
6	310744 27 0 0 0 0 3 0 4 4 16
vector 7 FanetGpsrNormal.host[7].wlan[0].radio radioMode:vector ETV
attr interpolationmode sample-hold
attr source radioModeChanged
attr title "Radio mode, vector"
7	310771 27 0 0 0 0 3 0 4 4 16
vector 8 FanetGpsrNormal.host[8].wlan[0].radio radioMode:vector ETV
attr interpolationmode sample-hold
attr source radioModeChanged
attr title "Radio mode, vector"
8	310798 27 0 0 0 0 3 0 4 4 16
vector 9 FanetGpsrNormal.host[9].wlan[0].radio radioMode:vector ETV
attr interpolationmode sample-hold
attr source radioModeChanged
attr title "Radio mode, vector"
9	310825 27 0 0 0 0 3 0 4 4 16
vector 10 FanetGpsrNormal.host[10].wlan[0].radio radioMode:vector ETV
attr interpolationmode sample-hold
attr source radioModeChanged
attr title "Radio mode, vector"
10	310852 30 0 0 0 0 3 0 4 4 16
vector 11 FanetGpsrNormal.host[11].wlan[0].radio radioMode:vector ETV
attr interpolationmode sample-hold
attr source radioModeChanged
attr title "Radio mode, vector"
11	310882 30 0 0 0 0 3 0 4 4 16
vector 12 FanetGpsrNormal.host[12].wlan[0].radio radioMode:vector ETV
attr interpolationmode sample-hold
attr source radioModeChanged
attr title "Radio mode, vector"
12	310912 30 0 0 0 0 3 0 4 4 16
vector 13 FanetGpsrNormal.host[13].wlan[0].radio radioMode:vector ETV
attr interpolationmode sample-hold
attr source radioModeChanged
attr title "Radio mode, vector"
13	310942 30 0 0 0 0 3 0 4 4 16
vector 14 FanetGpsrNormal.host[14].wlan[0].radio radioMode:vector ETV
attr interpolationmode sample-hold
attr source radioModeChanged
attr title "Radio mode, vector"
14	310972 30 0 0 0 0 3 0 4 4 16
vector 15 FanetGpsrNormal.host[15].wlan[0].radio radioMode:vector ETV
attr interpolationmode sample-hold
attr source radioModeChanged
attr title "Radio mode, vector"
15	311002 30 0 0 0 0 3 0 4 4 16
vector 16 FanetGpsrNormal.host[16].wlan[0].radio radioMode:vector ETV
attr interpolationmode sample-hold
attr source radioModeChanged
attr title "Radio mode, vector"
16	311032 30 0 0 0 0 3 0 4 4 16
vector 17 FanetGpsrNormal.host[17].wlan[0].radio radioMode:vector ETV
attr interpolationmode sample-hold
attr source radioModeChanged
attr title "Radio mode, vector"
17	311062 30 0 0 0 0 3 0 4 4 16
vector 18 FanetGpsrNormal.host[18].wlan[0].radio radioMode:vector ETV
attr interpolationmode sample-hold
attr source radioModeChanged
attr title "Radio mode, vector"
18	311092 30 0 0 0 0 3 0 4 4 16
vector 19 FanetGpsrNormal.host[19].wlan[0].radio radioMode:vector ETV
attr interpolationmode sample-hold
attr source radioModeChanged
attr title "Radio mode, vector"
19	311122 30 0 0 0 0 3 0 4 4 16
vector 20 FanetGpsrNormal.host[20].wlan[0].radio radioMode:vector ETV
attr interpolationmode sample-hold
attr source radioModeChanged
attr title "Radio mode, vector"
20	311152 30 0 0 0 0 3 0 4 4 16
vector 21 FanetGpsrNormal.grayhole[0].wlan[0].radio radioMode:vector ETV
attr interpolationmode sample-hold
attr source radioModeChanged
attr title "Radio mode, vector"
21	311182 30 0 0 0 0 3 0 4 4 16
vector 22 FanetGpsrNormal.grayhole[1].wlan[0].radio radioMode:vector ETV
attr interpolationmode sample-hold
attr source radioModeChanged
attr title "Radio mode, vector"
22	311212 30 0 0 0 0 3 0 4 4 16
vector 23 FanetGpsrNormal.grayhole[2].wlan[0].radio radioMode:vector ETV
attr interpolationmode sample-hold
attr source radioModeChanged
attr title "Radio mode, vector"
23	311242 30 0 0 0 0 3 0 4 4 16
vector 24 FanetGpsrNormal.grayhole[3].wlan[0].radio radioMode:vector ETV
attr interpolationmode sample-hold
attr source radioModeChanged
attr title "Radio mode, vector"
24	311272 30 0 0 0 0 3 0 4 4 16
vector 25 FanetGpsrNormal.grayhole[4].wlan[0].radio radioMode:vector ETV
attr interpolationmode sample-hold
attr source radioModeChanged
attr title "Radio mode, vector"
25	311302 30 0 0 0 0 3 0 4 4 16
vector 26 FanetGpsrNormal.grayhole[5].wlan[0].radio radioMode:vector ETV
attr interpolationmode sample-hold
attr source radioModeChanged
attr title "Radio mode, vector"
26	311332 30 0 0 0 0 3 0 4 4 16
vector 27 FanetGpsrNormal.grayhole[6].wlan[0].radio radioMode:vector ETV
attr interpolationmode sample-hold
attr source radioModeChanged
attr title "Radio mode, vector"
27	311362 30 0 0 0 0 3 0 4 4 16
vector 28 FanetGpsrNormal.grayhole[7].wlan[0].radio radioMode:vector ETV
attr interpolationmode sample-hold
attr source radioModeChanged
attr title "Radio mode, vector"
28	311392 30 0 0 0 0 3 0 4 4 16
vector 29 FanetGpsrNormal.grayhole[8].wlan[0].radio radioMode:vector ETV
attr interpolationmode sample-hold
attr source radioModeChanged
attr title "Radio mode, vector"
29	311422 30 0 0 0 0 3 0 4 4 16
vector 30 FanetGpsrNormal.grayhole[9].wlan[0].radio radioMode:vector ETV
attr interpolationmode sample-hold
attr source radioModeChanged
attr title "Radio mode, vector"
30	311452 30 0 0 0 0 3 0 4 4 16
vector 31 FanetGpsrNormal.grayhole[10].wlan[0].radio radioMode:vector ETV
attr interpolationmode sample-hold
attr source radioModeChanged
attr title "Radio mode, vector"
31	311482 30 0 0 0 0 3 0 4 4 16
vector 32 FanetGpsrNormal.grayhole[11].wlan[0].radio radioMode:vector ETV
attr interpolationmode sample-hold
attr source radioModeChanged
attr title "Radio mode, vector"
32	311512 30 0 0 0 0 3 0 4 4 16
vector 33 FanetGpsrNormal.grayhole[12].wlan[0].radio radioMode:vector ETV
attr interpolationmode sample-hold
attr source radioModeChanged
attr title "Radio mode, vector"
33	311542 30 0 0 0 0 3 0 4 4 16
vector 34 FanetGpsrNormal.grayhole[13].wlan[0].radio radioMode:vector ETV
attr interpolationmode sample-hold
attr source radioModeChanged
attr title "Radio mode, vector"
34	311572 30 0 0 0 0 3 0 4 4 16
vector 35 FanetGpsrNormal.grayhole[14].wlan[0].radio radioMode:vector ETV
attr interpolationmode sample-hold
attr source radioModeChanged
attr title "Radio mode, vector"
35	311602 30 0 0 0 0 3 0 4 4 16
vector 36 FanetGpsrNormal.grayhole[15].wlan[0].radio radioMode:vector ETV
attr interpolationmode sample-hold
attr source radioModeChanged
attr title "Radio mode, vector"
36	311632 30 0 0 0 0 3 0 4 4 16
vector 37 FanetGpsrNormal.grayhole[16].wlan[0].radio radioMode:vector ETV
attr interpolationmode sample-hold
attr source radioModeChanged
attr title "Radio mode, vector"
37	311662 30 0 0 0 0 3 0 4 4 16
vector 38 FanetGpsrNormal.grayhole[17].wlan[0].radio radioMode:vector ETV
attr interpolationmode sample-hold
attr source radioModeChanged
attr title "Radio mode, vector"
38	311692 30 0 0 0 0 3 0 4 4 16
vector 39 FanetGpsrNormal.grayhole[18].wlan[0].radio radioMode:vector ETV
attr interpolationmode sample-hold
attr source radioModeChanged
attr title "Radio mode, vector"
39	311722 30 0 0 0 0 3 0 4 4 16
vector 40 FanetGpsrNormal.grayhole[19].wlan[0].radio radioMode:vector ETV
attr interpolationmode sample-hold
attr source radioModeChanged
attr title "Radio mode, vector"
40	311752 30 0 0 0 0 3 0 4 4 16
vector 41 FanetGpsrNormal.grayhole[20].wlan[0].radio radioMode:vector ETV
attr interpolationmode sample-hold
attr source radioModeChanged
attr title "Radio mode, vector"
41	311782 30 0 0 0 0 3 0 4 4 16
vector 42 FanetGpsrNormal.grayhole[21].wlan[0].radio radioMode:vector ETV
attr interpolationmode sample-hold
attr source radioModeChanged
attr title "Radio mode, vector"
42	311812 30 0 0 0 0 3 0 4 4 16
vector 43 FanetGpsrNormal.grayhole[22].wlan[0].radio radioMode:vector ETV
attr interpolationmode sample-hold
attr source radioModeChanged
attr title "Radio mode, vector"
43	311842 30 0 0 0 0 3 0 4 4 16
vector 44 FanetGpsrNormal.grayhole[23].wlan[0].radio radioMode:vector ETV
attr interpolationmode sample-hold
attr source radioModeChanged
attr title "Radio mode, vector"
44	311872 30 0 0 0 0 3 0 4 4 16
vector 45 FanetGpsrNormal.grayhole[24].wlan[0].radio radioMode:vector ETV
attr interpolationmode sample-hold
attr source radioModeChanged
attr title "Radio mode, vector"
45	311902 30 0 0 0 0 3 0 4 4 16
vector 46 FanetGpsrNormal.grayhole[25].wlan[0].radio radioMode:vector ETV
attr interpolationmode sample-hold
attr source radioModeChanged
attr title "Radio mode, vector"
46	311932 30 0 0 0 0 3 0 4 4 16
vector 47 FanetGpsrNormal.grayhole[26].wlan[0].radio radioMode:vector ETV
attr interpolationmode sample-hold
attr source radioModeChanged
attr title "Radio mode, vector"
47	311962 30 0 0 0 0 3 0 4 4 16
vector 48 FanetGpsrNormal.grayhole[27].wlan[0].radio radioMode:vector ETV
attr interpolationmode sample-hold
attr source radioModeChanged
attr title "Radio mode, vector"
48	311992 30 0 0 0 0 3 0 4 4 16
vector 49 FanetGpsrNormal.grayhole[28].wlan[0].radio radioMode:vector ETV
attr interpolationmode sample-hold
attr source radioModeChanged
attr title "Radio mode, vector"
49	312022 30 0 0 0 0 3 0 4 4 16
vector 50 FanetGpsrNormal.grayhole[29].wlan[0].radio radioMode:vector ETV
attr interpolationmode sample-hold
attr source radioModeChanged
attr title "Radio mode, vector"
50	312052 30 0 0 0 0 3 0 4 4 16
vector 51 FanetGpsrNormal.grayhole[30].wlan[0].radio radioMode:vector ETV
attr interpolationmode sample-hold
attr source radioModeChanged
attr title "Radio mode, vector"
51	312082 30 0 0 0 0 3 0 4 4 16
vector 52 FanetGpsrNormal.grayhole[31].wlan[0].radio radioMode:vector ETV
attr interpolationmode sample-hold
attr source radioModeChanged
attr title "Radio mode, vector"
52	312112 30 0 0 0 0 3 0 4 4 16
vector 53 FanetGpsrNormal.grayhole[32].wlan[0].radio radioMode:vector ETV
attr interpolationmode sample-hold
attr source radioModeChanged
attr title "Radio mode, vector"
53	312142 30 0 0 0 0 3 0 4 4 16
vector 54 FanetGpsrNormal.grayhole[33].wlan[0].radio radioMode:vector ETV
attr interpolationmode sample-hold
attr source radioModeChanged
attr title "Radio mode, vector"
54	312172 30 0 0 0 0 3 0 4 4 16
vector 55 FanetGpsrNormal.grayhole[34].wlan[0].radio radioMode:vector ETV
attr interpolationmode sample-hold
attr source radioModeChanged
attr title "Radio mode, vector"
55	312202 30 0 0 0 0 3 0 4 4 16
vector 56 FanetGpsrNormal.grayhole[35].wlan[0].radio radioMode:vector ETV
attr interpolationmode sample-hold
attr source radioModeChanged
attr title "Radio mode, vector"
56	312232 30 0 0 0 0 3 0 4 4 16
vector 57 FanetGpsrNormal.grayhole[36].wlan[0].radio radioMode:vector ETV
attr interpolationmode sample-hold
attr source radioModeChanged
attr title "Radio mode, vector"
57	312262 30 0 0 0 0 3 0 4 4 16
vector 58 FanetGpsrNormal.grayhole[37].wlan[0].radio radioMode:vector ETV
attr interpolationmode sample-hold
attr source radioModeChanged
attr title "Radio mode, vector"
58	312292 30 0 0 0 0 3 0 4 4 16
vector 59 FanetGpsrNormal.grayhole[38].wlan[0].radio radioMode:vector ETV
attr interpolationmode sample-hold
attr source radioModeChanged
attr title "Radio mode, vector"
59	312322 30 0 0 0 0 3 0 4 4 16
vector 60 FanetGpsrNormal.grayhole[39].wlan[0].radio radioMode:vector ETV
attr interpolationmode sample-hold
attr source radioModeChanged
attr title "Radio mode, vector"
60	312352 30 0 0 0 0 3 0 4 4 16
vector 61 FanetGpsrNormal.grayhole[40].wlan[0].radio radioMode:vector ETV
attr interpolationmode sample-hold
attr source radioModeChanged
attr title "Radio mode, vector"
61	312382 30 0 0 0 0 3 0 4 4 16
vector 62 FanetGpsrNormal.grayhole[41].wlan[0].radio radioMode:vector ETV
attr interpolationmode sample-hold
attr source radioModeChanged
attr title "Radio mode, vector"
62	312412 30 0 0 0 0 3 0 4 4 16
vector 63 FanetGpsrNormal.grayhole[42].wlan[0].radio radioMode:vector ETV
attr interpolationmode sample-hold
attr source radioModeChanged
attr title "Radio mode, vector"
63	312442 30 0 0 0 0 3 0 4 4 16
vector 64 FanetGpsrNormal.grayhole[43].wlan[0].radio radioMode:vector ETV
attr interpolationmode sample-hold
attr source radioModeChanged
attr title "Radio mode, vector"
64	312472 30 0 0 0 0 3 0 4 4 16
vector 65 FanetGpsrNormal.grayhole[44].wlan[0].radio radioMode:vector ETV
attr interpolationmode sample-hold
attr source radioModeChanged
attr title "Radio mode, vector"
65	312502 30 0 0 0 0 3 0 4 4 16
vector 66 FanetGpsrNormal.grayhole[45].wlan[0].radio radioMode:vector ETV
attr interpolationmode sample-hold
attr source radioModeChanged
attr title "Radio mode, vector"
66	312532 30 0 0 0 0 3 0 4 4 16
vector 67 FanetGpsrNormal.grayhole[46].wlan[0].radio radioMode:vector ETV
attr interpolationmode sample-hold
attr source radioModeChanged
attr title "Radio mode, vector"
67	312562 30 0 0 0 0 3 0 4 4 16
vector 68 FanetGpsrNormal.grayhole[47].wlan[0].radio radioMode:vector ETV
attr interpolationmode sample-hold
attr source radioModeChanged
attr title "Radio mode, vector"
68	312592 30 0 0 0 0 3 0 4 4 16
vector 69 FanetGpsrNormal.grayhole[48].wlan[0].radio radioMode:vector ETV
attr interpolationmode sample-hold
attr source radioModeChanged
attr title "Radio mode, vector"
69	312622 30 0 0 0 0 3 0 4 4 16
vector 70 FanetGpsrNormal.grayhole[49].wlan[0].radio radioMode:vector ETV
attr interpolationmode sample-hold
attr source radioModeChanged
attr title "Radio mode, vector"
70	312652 30 0 0 0 0 3 0 4 4 16
vector 71 FanetGpsrNormal.grayhole[50].wlan[0].radio radioMode:vector ETV
attr interpolationmode sample-hold
attr source radioModeChanged
attr title "Radio mode, vector"
71	312682 30 0 0 0 0 3 0 4 4 16
vector 72 FanetGpsrNormal.grayhole[51].wlan[0].radio radioMode:vector ETV
attr interpolationmode sample-hold
attr source radioModeChanged
attr title "Radio mode, vector"
72	312712 30 0 0 0 0 3 0 4 4 16
vector 73 FanetGpsrNormal.grayhole[52].wlan[0].radio radioMode:vector ETV
attr interpolationmode sample-hold
attr source radioModeChanged
attr title "Radio mode, vector"
73	312742 30 0 0 0 0 3 0 4 4 16
vector 74 FanetGpsrNormal.grayhole[53].wlan[0].radio radioMode:vector ETV
attr interpolationmode sample-hold
attr source radioModeChanged
attr title "Radio mode, vector"
74	312772 30 0 0 0 0 3 0 4 4 16
vector 75 FanetGpsrNormal.grayhole[54].wlan[0].radio radioMode:vector ETV
attr interpolationmode sample-hold
attr source radioModeChanged
attr title "Radio mode, vector"
75	312802 30 0 0 0 0 3 0 4 4 16
vector 76 FanetGpsrNormal.grayhole[55].wlan[0].radio radioMode:vector ETV
attr interpolationmode sample-hold
attr source radioModeChanged
attr title "Radio mode, vector"
76	312832 30 0 0 0 0 3 0 4 4 16
vector 77 FanetGpsrNormal.grayhole[56].wlan[0].radio radioMode:vector ETV
attr interpolationmode sample-hold
attr source radioModeChanged
attr title "Radio mode, vector"
77	312862 30 0 0 0 0 3 0 4 4 16
vector 78 FanetGpsrNormal.grayhole[57].wlan[0].radio radioMode:vector ETV
attr interpolationmode sample-hold
attr source radioModeChanged
attr title "Radio mode, vector"
78	312892 30 0 0 0 0 3 0 4 4 16
vector 79 FanetGpsrNormal.grayhole[58].wlan[0].radio radioMode:vector ETV
attr interpolationmode sample-hold
attr source radioModeChanged
attr title "Radio mode, vector"
79	312922 30 0 0 0 0 3 0 4 4 16
vector 80 FanetGpsrNormal.grayhole[59].wlan[0].radio radioMode:vector ETV
attr interpolationmode sample-hold
attr source radioModeChanged
attr title "Radio mode, vector"
80	312952 30 0 0 0 0 3 0 4 4 16
vector 81 FanetGpsrNormal.grayhole[60].wlan[0].radio radioMode:vector ETV
attr interpolationmode sample-hold
attr source radioModeChanged
attr title "Radio mode, vector"
81	312982 30 0 0 0 0 3 0 4 4 16
vector 82 FanetGpsrNormal.grayhole[61].wlan[0].radio radioMode:vector ETV
attr interpolationmode sample-hold
attr source radioModeChanged
attr title "Radio mode, vector"
82	313012 30 0 0 0 0 3 0 4 4 16
vector 83 FanetGpsrNormal.grayhole[62].wlan[0].radio radioMode:vector ETV
attr interpolationmode sample-hold
attr source radioModeChanged
attr title "Radio mode, vector"
83	313042 30 0 0 0 0 3 0 4 4 16
vector 84 FanetGpsrNormal.grayhole[63].wlan[0].radio radioMode:vector ETV
attr interpolationmode sample-hold
attr source radioModeChanged
attr title "Radio mode, vector"
84	313072 30 0 0 0 0 3 0 4 4 16
vector 85 FanetGpsrNormal.grayhole[64].wlan[0].radio radioMode:vector ETV
attr interpolationmode sample-hold
attr source radioModeChanged
attr title "Radio mode, vector"
85	313102 30 0 0 0 0 3 0 4 4 16
vector 86 FanetGpsrNormal.grayhole[65].wlan[0].radio radioMode:vector ETV
attr interpolationmode sample-hold
attr source radioModeChanged
attr title "Radio mode, vector"
86	313132 30 0 0 0 0 3 0 4 4 16
vector 87 FanetGpsrNormal.grayhole[66].wlan[0].radio radioMode:vector ETV
attr interpolationmode sample-hold
attr source radioModeChanged
attr title "Radio mode, vector"
87	313162 30 0 0 0 0 3 0 4 4 16
vector 88 FanetGpsrNormal.grayhole[67].wlan[0].radio radioMode:vector ETV
attr interpolationmode sample-hold
attr source radioModeChanged
attr title "Radio mode, vector"
88	313192 30 0 0 0 0 3 0 4 4 16
vector 89 FanetGpsrNormal.grayhole[68].wlan[0].radio radioMode:vector ETV
attr interpolationmode sample-hold
attr source radioModeChanged
attr title "Radio mode, vector"
89	313222 30 0 0 0 0 3 0 4 4 16
vector 90 FanetGpsrNormal.grayhole[69].wlan[0].radio radioMode:vector ETV
attr interpolationmode sample-hold
attr source radioModeChanged
attr title "Radio mode, vector"
90	313252 30 0 0 0 0 3 0 4 4 16
vector 91 FanetGpsrNormal.grayhole[70].wlan[0].radio radioMode:vector ETV
attr interpolationmode sample-hold
attr source radioModeChanged
attr title "Radio mode, vector"
91	313282 30 0 0 0 0 3 0 4 4 16
vector 92 FanetGpsrNormal.grayhole[71].wlan[0].radio radioMode:vector ETV
attr interpolationmode sample-hold
attr source radioModeChanged
attr title "Radio mode, vector"
92	313312 30 0 0 0 0 3 0 4 4 16
vector 93 FanetGpsrNormal.grayhole[72].wlan[0].radio radioMode:vector ETV
attr interpolationmode sample-hold
attr source radioModeChanged
attr title "Radio mode, vector"
93	313342 30 0 0 0 0 3 0 4 4 16
vector 94 FanetGpsrNormal.grayhole[73].wlan[0].radio radioMode:vector ETV
attr interpolationmode sample-hold
attr source radioModeChanged
attr title "Radio mode, vector"
94	313372 30 0 0 0 0 3 0 4 4 16
vector 95 FanetGpsrNormal.grayhole[74].wlan[0].radio radioMode:vector ETV
attr interpolationmode sample-hold
attr source radioModeChanged
attr title "Radio mode, vector"
95	313402 30 0 0 0 0 3 0 4 4 16
vector 96 FanetGpsrNormal.grayhole[75].wlan[0].radio radioMode:vector ETV
attr interpolationmode sample-hold
attr source radioModeChanged
attr title "Radio mode, vector"
96	313432 30 0 0 0 0 3 0 4 4 16
vector 97 FanetGpsrNormal.grayhole[76].wlan[0].radio radioMode:vector ETV
attr interpolationmode sample-hold
attr source radioModeChanged
attr title "Radio mode, vector"
97	313462 30 0 0 0 0 3 0 4 4 16
vector 98 FanetGpsrNormal.grayhole[77].wlan[0].radio radioMode:vector ETV
attr interpolationmode sample-hold
attr source radioModeChanged
attr title "Radio mode, vector"
98	313492 30 0 0 0 0 3 0 4 4 16
vector 99 FanetGpsrNormal.grayhole[78].wlan[0].radio radioMode:vector ETV
attr interpolationmode sample-hold
attr source radioModeChanged
attr title "Radio mode, vector"
99	313522 30 0 0 0 0 3 0 4 4 16
vector 100 FanetGpsrNormal.grayhole[79].wlan[0].radio radioMode:vector ETV
attr interpolationmode sample-hold
attr source radioModeChanged
attr title "Radio mode, vector"
100	313552 33 0 0 0 0 3 0 4 4 16
vector 101 FanetGpsrNormal.grayhole[80].wlan[0].radio radioMode:vector ETV
attr interpolationmode sample-hold
attr source radioModeChanged
attr title "Radio mode, vector"
101	313585 33 0 0 0 0 3 0 4 4 16
vector 102 FanetGpsrNormal.grayhole[81].wlan[0].radio radioMode:vector ETV
attr interpolationmode sample-hold
attr source radioModeChanged
attr title "Radio mode, vector"
102	313618 33 0 0 0 0 3 0 4 4 16
vector 103 FanetGpsrNormal.grayhole[82].wlan[0].radio radioMode:vector ETV
attr interpolationmode sample-hold
attr source radioModeChanged
attr title "Radio mode, vector"
103	313651 33 0 0 0 0 3 0 4 4 16
vector 104 FanetGpsrNormal.grayhole[83].wlan[0].radio radioMode:vector ETV
attr interpolationmode sample-hold
attr source radioModeChanged
attr title "Radio mode, vector"
104	313684 33 0 0 0 0 3 0 4 4 16
vector 105 FanetGpsrNormal.grayhole[84].wlan[0].radio radioMode:vector ETV
attr interpolationmode sample-hold
attr source radioModeChanged
attr title "Radio mode, vector"
105	313717 33 0 0 0 0 3 0 4 4 16
vector 106 FanetGpsrNormal.grayhole[85].wlan[0].radio radioMode:vector ETV
attr interpolationmode sample-hold
attr source radioModeChanged
attr title "Radio mode, vector"
106	313750 33 0 0 0 0 3 0 4 4 16
vector 107 FanetGpsrNormal.grayhole[86].wlan[0].radio radioMode:vector ETV
attr interpolationmode sample-hold
attr source radioModeChanged
attr title "Radio mode, vector"
107	313783 33 0 0 0 0 3 0 4 4 16
vector 108 FanetGpsrNormal.grayhole[87].wlan[0].radio radioMode:vector ETV
attr interpolationmode sample-hold
attr source radioModeChanged
attr title "Radio mode, vector"
108	313816 33 0 0 0 0 3 0 4 4 16
vector 109 FanetGpsrNormal.grayhole[88].wlan[0].radio radioMode:vector ETV
attr interpolationmode sample-hold
attr source radioModeChanged
attr title "Radio mode, vector"
109	313849 33 0 0 0 0 3 0 4 4 16
vector 110 FanetGpsrNormal.grayhole[89].wlan[0].radio radioMode:vector ETV
attr interpolationmode sample-hold
attr source radioModeChanged
attr title "Radio mode, vector"
110	313882 33 0 0 0 0 3 0 4 4 16
vector 111 FanetGpsrNormal.grayhole[90].wlan[0].radio radioMode:vector ETV
attr interpolationmode sample-hold
attr source radioModeChanged
attr title "Radio mode, vector"
111	313915 33 0 0 0 0 3 0 4 4 16
vector 112 FanetGpsrNormal.grayhole[91].wlan[0].radio radioMode:vector ETV
attr interpolationmode sample-hold
attr source radioModeChanged
attr title "Radio mode, vector"
112	313948 33 0 0 0 0 3 0 4 4 16
vector 113 FanetGpsrNormal.grayhole[92].wlan[0].radio radioMode:vector ETV
attr interpolationmode sample-hold
attr source radioModeChanged
attr title "Radio mode, vector"
113	313981 33 0 0 0 0 3 0 4 4 16
vector 114 FanetGpsrNormal.grayhole[93].wlan[0].radio radioMode:vector ETV
attr interpolationmode sample-hold
attr source radioModeChanged
attr title "Radio mode, vector"
114	314014 33 0 0 0 0 3 0 4 4 16
vector 115 FanetGpsrNormal.grayhole[94].wlan[0].radio radioMode:vector ETV
attr interpolationmode sample-hold
attr source radioModeChanged
attr title "Radio mode, vector"
115	314047 33 0 0 0 0 3 0 4 4 16
vector 116 FanetGpsrNormal.grayhole[95].wlan[0].radio radioMode:vector ETV
attr interpolationmode sample-hold
attr source radioModeChanged
attr title "Radio mode, vector"
116	314080 33 0 0 0 0 3 0 4 4 16
vector 117 FanetGpsrNormal.grayhole[96].wlan[0].radio radioMode:vector ETV
attr interpolationmode sample-hold
attr source radioModeChanged
attr title "Radio mode, vector"
117	314113 33 0 0 0 0 3 0 4 4 16
vector 118 FanetGpsrNormal.grayhole[97].wlan[0].radio radioMode:vector ETV
attr interpolationmode sample-hold
attr source radioModeChanged
attr title "Radio mode, vector"
118	314146 33 0 0 0 0 3 0 4 4 16
vector 119 FanetGpsrNormal.grayhole[98].wlan[0].radio radioMode:vector ETV
attr interpolationmode sample-hold
attr source radioModeChanged
attr title "Radio mode, vector"
119	314179 33 0 0 0 0 3 0 4 4 16
vector 120 FanetGpsrNormal.grayhole[99].wlan[0].radio radioMode:vector ETV
attr interpolationmode sample-hold
attr source radioModeChanged
attr title "Radio mode, vector"
120	314212 33 0 0 0 0 3 0 4 4 16
vector 121 FanetGpsrNormal.host[0].wlan[0].radio receptionState:vector ETV
attr interpolationmode sample-hold
attr source receptionStateChanged
attr title "Radio reception state, vector"
121	314245 54844 0 1761505 0 45.468179964783 1829 1 3 3657 9141
121	16338950 3772 1762888 1912000 45.498603418506 49.344559939986 122 1 3 244 610
vector 122 FanetGpsrNormal.host[0].wlan[0].radio transmissionState:vector ETV
attr interpolationmode sample-hold
attr source transmissionStateChanged
attr title "Radio transmission state, vector"
122	369089 5188 0 1753689 0 45.319023869815 173 1 2 259 431
122	16342722 308 1762659 1861295 45.498236273229 48.061608565647 10 1 2 15 25
vector 123 FanetGpsrNormal.host[1].wlan[0].radio receptionState:vector ETV
attr interpolationmode sample-hold
attr source receptionStateChanged
attr title "Radio reception state, vector"
123	374277 63077 0 1761501 0 45.468179912581 2105 1 3 4209 10519
123	16343030 4696 1767181 1914164 45.612477458629 49.391640334352 152 1 3 304 760
vector 124 FanetGpsrNormal.host[1].wlan[0].radio transmissionState:vector ETV
attr interpolationmode sample-hold
attr source transmissionStateChanged
attr title "Radio transmission state, vector"
124	437354 2593 0 1723527 0 44.571947284877 87 1 2 130 216
124	16347726 184 1781369 1886664 45.996429822871 48.793279028167 6 1 2 9 15
vector 125 FanetGpsrNormal.host[2].wlan[0].radio receptionState:vector ETV
attr interpolationmode sample-hold
attr source receptionStateChanged
attr title "Radio reception state, vector"
125	439947 6578 0 1756801 0 45.357135609891 219 1 3 437 1091
125	16347910 679 1773924 1898461 45.827449108776 49.032103938568 22 1 3 44 110
vector 126 FanetGpsrNormal.host[2].wlan[0].radio transmissionState:vector ETV
attr interpolationmode sample-hold
attr source transmissionStateChanged
attr title "Radio transmission state, vector"
126	446525 2716 0 1708439 0 44.152070786242 91 1 2 136 226
126	16348589 368 1763322 1897501 45.51232935977 48.987688643296 12 1 2 18 30
vector 127 FanetGpsrNormal.host[3].wlan[0].radio receptionState:vector ETV
attr interpolationmode sample-hold
attr source receptionStateChanged
attr title "Radio reception state, vector"
127	449241 70020 0 1761525 0 45.468180040195 2334 1 3 4667 11665
127	16348957 5801 1763597 1912956 45.524948272773 49.358378889678 188 1 3 376 940
vector 128 FanetGpsrNormal.host[3].wlan[0].radio transmissionState:vector ETV
attr interpolationmode sample-hold
attr source transmissionStateChanged
attr title "Radio transmission state, vector"
128	519261 2598 0 1750326 0 45.219054796639 87 1 2 130 216
128	16354758 309 1773275 1910049 45.814412481851 49.306516580422 10 1 2 15 25
vector 129 FanetGpsrNormal.host[4].wlan[0].radio receptionState:vector ETV
attr interpolationmode sample-hold
attr source receptionStateChanged
attr title "Radio reception state, vector"
129	521859 51739 0 1762187 0 45.491217209146 1724 1 3 3447 8615
129	16355067 4878 1762366 1912892 45.495491221254 49.358378381045 158 1 3 316 790
vector 130 FanetGpsrNormal.host[4].wlan[0].radio transmissionState:vector ETV
attr interpolationmode sample-hold
attr source transmissionStateChanged
attr title "Radio transmission state, vector"
130	573598 2731 0 1735849 0 44.881698905863 91 1 2 136 226
130	16359945 248 1776574 1893343 45.865449785955 48.889605067811 8 1 2 12 20
vector 131 FanetGpsrNormal.host[5].wlan[0].radio receptionState:vector ETV
attr interpolationmode sample-hold
attr source receptionStateChanged
attr title "Radio reception state, vector"
131	576329 79376 0 1761866 0 45.481451070837 2638 1 3 5275 13183
131	16360193 8091 1763913 1916546 45.527624769269 49.448013251853 262 1 3 524 1310
vector 132 FanetGpsrNormal.host[5].wlan[0].radio transmissionState:vector ETV
attr interpolationmode sample-hold
attr source transmissionStateChanged
attr title "Radio transmission state, vector"
132	655705 2781 0 1731952 0 44.743274462314 93 1 2 139 231
132	16368284 248 1778547 1881176 45.925204925471 48.627753154046 8 1 2 12 20
vector 133 FanetGpsrNormal.host[6].wlan[0].radio receptionState:vector ETV
attr interpolationmode sample-hold
attr source receptionStateChanged
attr title "Radio reception state, vector"
133	658486 99318 0 1761798 0 45.481450616328 3305 1 3 6609 16519
133	16368532 8707 1762830 1916233 45.498602851846 49.42968307622 282 1 3 564 1410
vector 134 FanetGpsrNormal.host[6].wlan[0].radio transmissionState:vector ETV
attr interpolationmode sample-hold
attr source transmissionStateChanged
attr title "Radio transmission state, vector"
134	757804 2953 0 1757050 0 45.38563579498 99 1 2 148 246
134	16377239 247 1802919 1916485 46.553172141084 49.448012539094 8 1 2 12 20
vector 135 FanetGpsrNormal.host[7].wlan[0].radio receptionState:vector ETV
attr interpolationmode sample-hold
attr source receptionStateChanged
attr title "Radio reception state, vector"
135	760757 68460 0 1761862 0 45.481451062776 2279 1 3 4557 11391
135	16377486 5187 1762665 1916554 45.498236861458 49.448013277507 168 1 3 336 840
vector 136 FanetGpsrNormal.host[7].wlan[0].radio transmissionState:vector ETV
attr interpolationmode sample-hold
attr source transmissionStateChanged
attr title "Radio transmission state, vector"
136	829217 2707 0 1730973 0 44.707880918309 91 1 2 136 226
136	16382673 247 1784312 1874684 46.060087364401 48.409228191617 8 1 2 12 20
vector 137 FanetGpsrNormal.host[8].wlan[0].radio receptionState:vector ETV
attr interpolationmode sample-hold
attr source receptionStateChanged
attr title "Radio reception state, vector"
137	831924 66853 0 1762167 0 45.491217168243 2224 1 3 4447 11115
137	16382920 6428 1764848 1915875 45.545382004208 49.428845401929 208 1 3 416 1040
vector 138 FanetGpsrNormal.host[8].wlan[0].radio transmissionState:vector ETV
attr interpolationmode sample-hold
attr source transmissionStateChanged
attr title "Radio transmission state, vector"
138	898777 2653 0 1751301 0 45.230527250933 89 1 2 133 221
138	16389348 308 1771005 1889939 45.774302351056 48.839434236892 10 1 2 15 25
vector 139 FanetGpsrNormal.host[9].wlan[0].radio receptionState:vector ETV
attr interpolationmode sample-hold
attr source receptionStateChanged
attr title "Radio reception state, vector"
139	901430 64132 0 1762054 0 45.491194899263 2136 1 3 4272 10680
139	16389656 6085 1762247 1912868 45.49121756593 49.358378076875 197 1 3 393 981
vector 140 FanetGpsrNormal.host[9].wlan[0].radio transmissionState:vector ETV
attr interpolationmode sample-hold
attr source transmissionStateChanged
attr title "Radio transmission state, vector"
140	965562 2707 0 1729243 0 44.697505600892 91 1 2 136 226
140	16395741 371 1777166 1910688 45.879912507258 49.33203771771 12 1 2 18 30
vector 141 FanetGpsrNormal.host[10].wlan[0].radio receptionState:vector ETV
attr interpolationmode sample-hold
attr source receptionStateChanged
attr title "Radio reception state, vector"
141	968269 48764 0 1760034 0 45.456130882509 1627 1 3 3253 8131
141	16396112 4020 1766913 1914978 45.612452437485 49.409919499051 130 1 3 260 650
vector 142 FanetGpsrNormal.host[10].wlan[0].radio transmissionState:vector ETV
attr interpolationmode sample-hold
attr source transmissionStateChanged
attr title "Radio transmission state, vector"
142	1017033 2893 0 1739525 0 44.950304414748 97 1 2 145 241
142	16400132 247 1794991 1912573 46.336786899249 49.352833448813 8 1 2 12 20
vector 143 FanetGpsrNormal.host[11].wlan[0].radio receptionState:vector ETV
attr interpolationmode sample-hold
attr source receptionStateChanged
attr title "Radio reception state, vector"
143	1019926 80491 0 1761810 0 45.481450711612 2677 1 3 5353 13379
143	16400379 7227 1762676 1916498 45.498237261781 49.448012882267 234 1 3 468 1170
vector 144 FanetGpsrNormal.host[11].wlan[0].radio transmissionState:vector ETV
attr interpolationmode sample-hold
attr source transmissionStateChanged
attr title "Radio transmission state, vector"
144	1100417 2766 0 1741800 0 45.006289816133 93 1 2 139 231
144	16407606 247 1781798 1893767 46.017122710588 48.917482073788 8 1 2 12 20
vector 145 FanetGpsrNormal.host[12].wlan[0].radio receptionState:vector ETV
attr interpolationmode sample-hold
attr source receptionStateChanged
attr title "Radio reception state, vector"
145	1103183 30138 0 1762211 0 45.491217301864 1007 1 3 2013 5031
145	16407853 2288 1767841 1915002 45.628978194466 49.409919662574 74 1 3 148 370
vector 146 FanetGpsrNormal.host[12].wlan[0].radio transmissionState:vector ETV
attr interpolationmode sample-hold
attr source transmissionStateChanged
attr title "Radio transmission state, vector"
146	1133321 2530 0 1739818 0 44.950915028943 85 1 2 127 211
146	16410141 246 1791201 1883549 46.229266314533 48.700460563085 8 1 2 12 20
vector 147 FanetGpsrNormal.host[13].wlan[0].radio receptionState:vector ETV
attr interpolationmode sample-hold
attr source receptionStateChanged
attr title "Radio reception state, vector"
147	1135851 64766 0 1762155 0 45.491217081732 2154 1 3 4307 10765
147	16410387 6294 1764850 1915923 45.545382066504 49.428845713681 204 1 3 408 1020
vector 148 FanetGpsrNormal.host[13].wlan[0].radio transmissionState:vector ETV
attr interpolationmode sample-hold
attr source transmissionStateChanged
attr title "Radio transmission state, vector"
148	1200617 2716 0 1754227 0 45.323897330229 91 1 2 136 226
148	16416681 185 1809443 1910366 46.78062606277 49.308453638013 6 1 2 9 15
vector 149 FanetGpsrNormal.host[14].wlan[0].radio receptionState:vector ETV
attr interpolationmode sample-hold
attr source receptionStateChanged
attr title "Radio reception state, vector"
149	1203333 52205 0 1761545 0 45.468180189205 1743 1 3 3485 8711
149	16416866 3586 1769150 1914148 45.738639869582 49.39164019565 116 1 3 232 580
vector 150 FanetGpsrNormal.host[14].wlan[0].radio transmissionState:vector ETV
attr interpolationmode sample-hold
attr source transmissionStateChanged
attr title "Radio transmission state, vector"
150	1255538 2713 0 1759985 0 45.456130085187 91 1 2 136 226
150	16420452 248 1784018 1904820 46.057083698457 49.172862407426 8 1 2 12 20
vector 151 FanetGpsrNormal.host[15].wlan[0].radio receptionState:vector ETV
attr interpolationmode sample-hold
attr source receptionStateChanged
attr title "Radio reception state, vector"
151	1258251 50184 0 1757424 0 45.390589308892 1671 1 3 3341 8351
151	16420700 4633 1763325 1915903 45.512330271374 49.428845546596 150 1 3 300 750
vector 152 FanetGpsrNormal.host[15].wlan[0].radio transmissionState:vector ETV
attr interpolationmode sample-hold
attr source transmissionStateChanged
attr title "Radio transmission state, vector"
152	1308435 2892 0 1754547 0 45.326557949088 97 1 2 145 241
152	16425333 248 1773907 1878209 45.827448197172 48.508556297185 8 1 2 12 20
vector 153 FanetGpsrNormal.host[16].wlan[0].radio receptionState:vector ETV
attr interpolationmode sample-hold
attr source receptionStateChanged
attr title "Radio reception state, vector"
153	1311327 67985 0 1760914 0 45.461085108275 2261 1 3 4521 11301
153	16425581 6734 1762358 1916626 45.495491049405 49.448013517702 218 1 3 436 1090
vector 154 FanetGpsrNormal.host[16].wlan[0].radio transmissionState:vector ETV
attr interpolationmode sample-hold
attr source transmissionStateChanged
attr title "Radio transmission state, vector"
154	1379312 2838 0 1724735 0 44.599813020693 95 1 2 142 236
154	16432315 248 1769435 1896549 45.752035544021 48.969018393102 8 1 2 12 20
vector 155 FanetGpsrNormal.host[17].wlan[0].radio receptionState:vector ETV
attr interpolationmode sample-hold
attr source receptionStateChanged
attr title "Radio reception state, vector"
155	1382150 66459 0 1762219 0 45.491217342948 2216 1 3 4431 11075
155	16432563 5377 1767526 1915887 45.613718821727 49.428845466636 174 1 3 348 870
vector 156 FanetGpsrNormal.host[17].wlan[0].radio transmissionState:vector ETV
attr interpolationmode sample-hold
attr source transmissionStateChanged
attr title "Radio transmission state, vector"
156	1448609 2771 0 1735231 0 44.855830488864 93 1 2 139 231
156	16437940 248 1764846 1904176 45.545381684787 49.145450014292 8 1 2 12 20
vector 157 FanetGpsrNormal.host[18].wlan[0].radio receptionState:vector ETV
attr interpolationmode sample-hold
attr source receptionStateChanged
attr title "Radio reception state, vector"
157	1451380 69204 0 1758190 0 45.401383687725 2307 1 3 4613 11527
157	16438188 6182 1763917 1916253 45.527624819075 49.429683121108 200 1 3 400 1000
vector 158 FanetGpsrNormal.host[18].wlan[0].radio transmissionState:vector ETV
attr interpolationmode sample-hold
attr source transmissionStateChanged
attr title "Radio transmission state, vector"
158	1520584 2656 0 1729997 0 44.702601524209 89 1 2 133 221
158	16444370 309 1780446 1906165 45.970940008062 49.233074347861 10 1 2 15 25
vector 159 FanetGpsrNormal.host[19].wlan[0].radio receptionState:vector ETV
attr interpolationmode sample-hold
attr source receptionStateChanged
attr title "Radio reception state, vector"
159	1523240 45024 0 1757864 0 45.400826539702 1499 1 3 2997 7491
159	16444679 4083 1764868 1915911 45.545382678789 49.428845563591 132 1 3 264 660
vector 160 FanetGpsrNormal.host[19].wlan[0].radio transmissionState:vector ETV
attr interpolationmode sample-hold
attr source transmissionStateChanged
attr title "Radio transmission state, vector"
160	1568264 2654 0 1723834 0 44.577982081007 89 1 2 133 221
160	16448762 248 1782431 1906483 46.031765277266 49.242286481336 8 1 2 12 20
vector 161 FanetGpsrNormal.host[20].wlan[0].radio receptionState:vector ETV
attr interpolationmode sample-hold
attr source receptionStateChanged
attr title "Radio reception state, vector"
161	1570918 73420 0 1761842 0 45.481450975819 2441 1 3 4881 12199
161	16449010 6917 1762889 1916550 45.49860344498 49.448013259742 224 1 3 448 1120
vector 162 FanetGpsrNormal.host[20].wlan[0].radio transmissionState:vector ETV
attr interpolationmode sample-hold
attr source transmissionStateChanged
attr title "Radio transmission state, vector"
162	1644338 2595 0 1717852 0 44.385071381368 87 1 2 130 216
162	16455927 248 1766460 1885703 45.591400000967 48.756346833334 8 1 2 12 20
vector 163 FanetGpsrNormal.grayhole[0].wlan[0].radio receptionState:vector ETV
attr interpolationmode sample-hold
attr source receptionStateChanged
attr title "Radio reception state, vector"
163	1646933 41265 0 1753407 0 45.316663068749 1373 1 3 2745 6861
163	16456175 4016 1763902 1915301 45.527624472521 49.412327825449 130 1 3 260 650
vector 164 FanetGpsrNormal.grayhole[0].wlan[0].radio transmissionState:vector ETV
attr interpolationmode sample-hold
attr source transmissionStateChanged
attr title "Radio transmission state, vector"
164	1688198 2593 0 1746581 0 45.158218594636 87 1 2 130 216
164	16460191 185 1790910 1890262 46.220534978897 48.83964831675 6 1 2 9 15
vector 165 FanetGpsrNormal.grayhole[1].wlan[0].radio receptionState:vector ETV
attr interpolationmode sample-hold
attr source receptionStateChanged
attr title "Radio reception state, vector"
165	1690791 69805 0 1762179 0 45.491217193481 2326 1 3 4651 11625
165	16460376 6148 1763590 1914994 45.52494815146 49.40991955879 199 1 3 398 994
vector 166 FanetGpsrNormal.grayhole[1].wlan[0].radio transmissionState:vector ETV
attr interpolationmode sample-hold
attr source transmissionStateChanged
attr title "Radio transmission state, vector"
166	1760596 2773 0 1741045 0 44.985471191953 93 1 2 139 231
166	16466524 247 1797653 1909296 46.397438992978 49.281688641894 8 1 2 12 20
vector 167 FanetGpsrNormal.grayhole[2].wlan[0].radio receptionState:vector ETV
attr interpolationmode sample-hold
attr source receptionStateChanged
attr title "Radio reception state, vector"
167	1763369 35423 0 1761533 0 45.468180104484 1179 1 3 2357 5891
167	16466771 2841 1769148 1914184 45.738639642013 49.391640457243 92 1 3 184 460
vector 168 FanetGpsrNormal.grayhole[2].wlan[0].radio transmissionState:vector ETV
attr interpolationmode sample-hold
attr source transmissionStateChanged
attr title "Radio transmission state, vector"
168	1798792 2602 0 1721608 0 44.471692351296 87 1 2 130 216
168	16469612 247 1776880 1895632 45.873510848264 48.958507441354 8 1 2 12 20
vector 169 FanetGpsrNormal.grayhole[3].wlan[0].radio receptionState:vector ETV
attr interpolationmode sample-hold
attr source receptionStateChanged
attr title "Radio reception state, vector"
169	1801394 88821 0 1761822 0 45.481450801351 2956 1 3 5911 14773
169	16469859 8409 1762877 1916514 45.498603326416 49.448013077931 272 1 3 544 1360
vector 170 FanetGpsrNormal.grayhole[3].wlan[0].radio transmissionState:vector ETV
attr interpolationmode sample-hold
attr source transmissionStateChanged
attr title "Radio transmission state, vector"
170	1890215 2780 0 1731607 0 44.726914213879 93 1 2 139 231
170	16478268 248 1765485 1887686 45.563205505492 48.804386036845 8 1 2 12 20
vector 171 FanetGpsrNormal.grayhole[4].wlan[0].radio receptionState:vector ETV
attr interpolationmode sample-hold
attr source receptionStateChanged
attr title "Radio reception state, vector"
171	1892995 49369 0 1755555 0 45.339657374441 1647 1 3 3293 8231
171	16478516 4266 1762352 1912932 45.495490613119 49.358378654495 138 1 3 276 690
vector 172 FanetGpsrNormal.grayhole[4].wlan[0].radio transmissionState:vector ETV
attr interpolationmode sample-hold
attr source transmissionStateChanged
attr title "Radio transmission state, vector"
172	1942364 2664 0 1760885 0 45.461084259346 89 1 2 133 221
172	16482782 184 1812615 1888357 46.87730463501 48.81142652258 6 1 2 9 15
vector 173 FanetGpsrNormal.grayhole[5].wlan[0].radio receptionState:vector ETV
attr interpolationmode sample-hold
attr source receptionStateChanged
attr title "Radio reception state, vector"
173	1945028 72104 0 1761918 0 45.481451217671 2397 1 3 4793 11977
173	16482966 7289 1764504 1916618 45.533265839171 49.448013513197 236 1 3 472 1180
vector 174 FanetGpsrNormal.grayhole[5].wlan[0].radio transmissionState:vector ETV
attr interpolationmode sample-hold
attr source transmissionStateChanged
attr title "Radio transmission state, vector"
174	2017132 2836 0 1752251 0 45.285037563318 95 1 2 142 236
174	16490255 247 1785261 1915224 46.07839578483 49.412327055955 8 1 2 12 20
vector 175 FanetGpsrNormal.grayhole[6].wlan[0].radio receptionState:vector ETV
attr interpolationmode sample-hold
attr source receptionStateChanged
attr title "Radio reception state, vector"
175	2019968 74170 0 1762159 0 45.49121710978 2472 1 3 4943 12355
175	16490502 6490 1764852 1915883 45.545382109795 49.428845443144 210 1 3 420 1050
vector 176 FanetGpsrNormal.grayhole[6].wlan[0].radio transmissionState:vector ETV
attr interpolationmode sample-hold
attr source transmissionStateChanged
attr title "Radio transmission state, vector"
176	2094138 2838 0 1745364 0 45.134814386393 95 1 2 142 236
176	16496992 246 1801606 1914901 46.531302978516 49.409918667187 8 1 2 12 20
vector 177 FanetGpsrNormal.grayhole[7].wlan[0].radio receptionState:vector ETV
attr interpolationmode sample-hold
attr source receptionStateChanged
attr title "Radio reception state, vector"
177	2096976 41029 0 1762051 0 45.491194792043 1364 1 3 2728 6820
177	16497238 4229 1762235 1912912 45.49121745871 49.358378518645 137 1 3 273 681
vector 178 FanetGpsrNormal.grayhole[7].wlan[0].radio transmissionState:vector ETV
attr interpolationmode sample-hold
attr source transmissionStateChanged
attr title "Radio transmission state, vector"
178	2138005 2823 0 1748399 0 45.177769306253 95 1 2 142 236
178	16501467 186 1807159 1888650 46.670093601336 48.811593017911 6 1 2 9 15
vector 179 FanetGpsrNormal.grayhole[8].wlan[0].radio receptionState:vector ETV
attr interpolationmode sample-hold
attr source receptionStateChanged
attr title "Radio reception state, vector"
179	2140828 83623 0 1761878 0 45.481451104008 2779 1 3 5557 13889
179	16501653 8699 1762896 1916538 45.498603509667 49.44801323364 282 1 3 564 1410
vector 180 FanetGpsrNormal.grayhole[8].wlan[0].radio transmissionState:vector ETV
attr interpolationmode sample-hold
attr source transmissionStateChanged
attr title "Radio transmission state, vector"
180	2224451 2477 0 1715670 0 44.334096618134 83 1 2 124 206
180	16510352 247 1764495 1859993 45.533265162957 48.020979576649 8 1 2 12 20
vector 181 FanetGpsrNormal.grayhole[9].wlan[0].radio receptionState:vector ETV
attr interpolationmode sample-hold
attr source receptionStateChanged
attr title "Radio reception state, vector"
181	2226928 50182 0 1761521 0 45.468180020485 1670 1 3 3339 8345
181	16510599 4570 1767193 1914144 45.61247760484 49.391640189436 148 1 3 296 740
vector 182 FanetGpsrNormal.grayhole[9].wlan[0].radio transmissionState:vector ETV
attr interpolationmode sample-hold
attr source transmissionStateChanged
attr title "Radio transmission state, vector"
182	2277110 2831 0 1740090 0 44.952454286999 95 1 2 142 236
182	16515169 248 1786515 1892430 46.088108886034 48.871627786335 8 1 2 12 20
vector 183 FanetGpsrNormal.grayhole[10].wlan[0].radio receptionState:vector ETV
attr interpolationmode sample-hold
attr source receptionStateChanged
attr title "Radio reception state, vector"
183	2279941 35888 0 1759393 0 45.43221345663 1191 1 3 2381 5951
183	16515417 4079 1762893 1913869 45.498603476685 49.381631944637 132 1 3 264 660
vector 184 FanetGpsrNormal.grayhole[10].wlan[0].radio transmissionState:vector ETV
attr interpolationmode sample-hold
attr source transmissionStateChanged
attr title "Radio transmission state, vector"
184	2315829 2660 0 1749430 0 45.205684682725 89 1 2 133 221
184	16519496 246 1778888 1915558 45.926643049344 49.426883353756 8 1 2 12 20
vector 185 FanetGpsrNormal.grayhole[11].wlan[0].radio receptionState:vector ETV
attr interpolationmode sample-hold
attr source receptionStateChanged
attr title "Radio reception state, vector"
185	2318489 64955 0 1762195 0 45.491217268794 2162 1 3 4323 10805
185	16519742 5934 1764853 1915867 45.545382123789 49.428845266669 192 1 3 384 960
vector 186 FanetGpsrNormal.grayhole[11].wlan[0].radio transmissionState:vector ETV
attr interpolationmode sample-hold
attr source transmissionStateChanged
attr title "Radio transmission state, vector"
186	2383444 2537 0 1745047 0 45.127732443296 85 1 2 127 211
186	16525676 246 1801005 1899990 46.512538939947 49.068878085723 8 1 2 12 20
vector 187 FanetGpsrNormal.grayhole[12].wlan[0].radio receptionState:vector ETV
attr interpolationmode sample-hold
attr source receptionStateChanged
attr title "Radio reception state, vector"
187	2385981 69227 0 1761854 0 45.481451050258 2307 1 3 4613 11527
187	16525922 6116 1764519 1916566 45.533266100658 49.448013325799 198 1 3 396 990
vector 188 FanetGpsrNormal.grayhole[12].wlan[0].radio transmissionState:vector ETV
attr interpolationmode sample-hold
attr source transmissionStateChanged
attr title "Radio transmission state, vector"
188	2455208 2782 0 1758097 0 45.401382749106 93 1 2 139 231
188	16532038 246 1784627 1888945 46.076196646317 48.816986406127 8 1 2 12 20
vector 189 FanetGpsrNormal.grayhole[13].wlan[0].radio receptionState:vector ETV
attr interpolationmode sample-hold
attr source receptionStateChanged
attr title "Radio reception state, vector"
189	2457990 72975 0 1761898 0 45.481451168595 2426 1 3 4851 12125
189	16532284 6428 1762662 1916542 45.49823676678 49.448013244873 208 1 3 416 1040
vector 190 FanetGpsrNormal.grayhole[13].wlan[0].radio transmissionState:vector ETV
attr interpolationmode sample-hold
attr source transmissionStateChanged
attr title "Radio transmission state, vector"
190	2530965 2715 0 1760278 0 45.45787578579 91 1 2 136 226
190	16538712 186 1810203 1906777 46.803836993874 49.251874737581 6 1 2 9 15
vector 191 FanetGpsrNormal.grayhole[14].wlan[0].radio receptionState:vector ETV
attr interpolationmode sample-hold
attr source receptionStateChanged
attr title "Radio reception state, vector"
191	2533680 81891 0 1761870 0 45.481451071214 2729 1 3 5457 13639
191	16538898 6672 1762368 1916558 45.495491250112 49.448013281032 216 1 3 432 1080
vector 192 FanetGpsrNormal.grayhole[14].wlan[0].radio transmissionState:vector ETV
attr interpolationmode sample-hold
attr source transmissionStateChanged
attr title "Radio transmission state, vector"
192	2615571 2598 0 1727983 0 44.66150396657 87 1 2 130 216
192	16545570 248 1772213 1894681 45.780122051481 48.934801139774 8 1 2 12 20
vector 193 FanetGpsrNormal.grayhole[15].wlan[0].radio receptionState:vector ETV
attr interpolationmode sample-hold
attr source receptionStateChanged
attr title "Radio reception state, vector"
193	2618169 71521 0 1762052 0 45.491194862224 2382 1 3 4764 11910
193	16545818 6511 1762239 1912884 45.491217528891 49.358378335532 211 1 3 421 1051
vector 194 FanetGpsrNormal.grayhole[15].wlan[0].radio transmissionState:vector ETV
attr interpolationmode sample-hold
attr source transmissionStateChanged
attr title "Radio transmission state, vector"
194	2689690 2534 0 1733211 0 44.781757665236 85 1 2 127 211
194	16552329 247 1791475 1908972 46.245835939188 49.278647616409 8 1 2 12 20
vector 195 FanetGpsrNormal.grayhole[16].wlan[0].radio receptionState:vector ETV
attr interpolationmode sample-hold
attr source receptionStateChanged
attr title "Radio reception state, vector"
195	2692224 65606 0 1761481 0 45.468179653546 2181 1 3 4361 10901
195	16552576 5371 1762663 1912016 45.498236774251 49.344560086317 174 1 3 348 870
vector 196 FanetGpsrNormal.grayhole[16].wlan[0].radio transmissionState:vector ETV
attr interpolationmode sample-hold
attr source transmissionStateChanged
attr title "Radio transmission state, vector"
196	2757830 2774 0 1738089 0 44.901847659516 93 1 2 139 231
196	16557947 307 1767144 1900601 45.612476621056 49.079213233337 10 1 2 15 25
vector 197 FanetGpsrNormal.grayhole[17].wlan[0].radio receptionState:vector ETV
attr interpolationmode sample-hold
attr source receptionStateChanged
attr title "Radio reception state, vector"
197	2760604 60655 0 1762053 0 45.491194882195 2018 1 3 4036 10090
197	16558254 5710 1762243 1915855 45.491217548862 49.428845194598 185 1 3 369 921
vector 198 FanetGpsrNormal.grayhole[17].wlan[0].radio transmissionState:vector ETV
attr interpolationmode sample-hold
attr source transmissionStateChanged
attr title "Radio transmission state, vector"
198	2821259 2651 0 1726470 0 44.621522128956 89 1 2 133 221
198	16563964 248 1773592 1887371 45.823681934507 48.801737120284 8 1 2 12 20
vector 199 FanetGpsrNormal.grayhole[18].wlan[0].radio receptionState:vector ETV
attr interpolationmode sample-hold
attr source receptionStateChanged
attr title "Radio reception state, vector"
199	2823910 36807 0 1761541 0 45.468180188658 1225 1 3 2449 6121
199	16564212 2719 1762661 1912004 45.498236723721 49.344559941752 88 1 3 176 440
vector 200 FanetGpsrNormal.grayhole[18].wlan[0].radio transmissionState:vector ETV
attr interpolationmode sample-hold
attr source transmissionStateChanged
attr title "Radio transmission state, vector"
200	2860717 2721 0 1760604 0 45.458029442835 91 1 2 136 226
200	16566931 185 1797050 1886969 46.378653786375 48.796366355517 6 1 2 9 15
vector 201 FanetGpsrNormal.grayhole[19].wlan[0].radio receptionState:vector ETV
attr interpolationmode sample-hold
attr source receptionStateChanged
attr title "Radio reception state, vector"
201	2863438 66767 0 1762203 0 45.491217277707 2225 1 3 4449 11121
201	16567116 5630 1764854 1915919 45.545382169367 49.428845672003 182 1 3 364 910
vector 202 FanetGpsrNormal.grayhole[19].wlan[0].radio transmissionState:vector ETV
attr interpolationmode sample-hold
attr source transmissionStateChanged
attr title "Radio transmission state, vector"
202	2930205 2589 0 1743059 0 45.043714558844 87 1 2 130 216
202	16572746 247 1767521 1895917 45.613718337147 48.962407545558 8 1 2 12 20
vector 203 FanetGpsrNormal.grayhole[20].wlan[0].radio receptionState:vector ETV
attr interpolationmode sample-hold
attr source receptionStateChanged
attr title "Radio reception state, vector"
203	2932794 93517 0 1761818 0 45.481450794045 3109 1 3 6217 15539
203	16572993 8711 1762849 1916490 45.498603053385 49.448012853087 282 1 3 564 1410
vector 204 FanetGpsrNormal.grayhole[20].wlan[0].radio transmissionState:vector ETV
attr interpolationmode sample-hold
attr source transmissionStateChanged
attr title "Radio transmission state, vector"
204	3026311 2590 0 1758419 0 45.423428280886 87 1 2 130 216
204	16581704 248 1790557 1913780 46.213358253709 49.381631151215 8 1 2 12 20
vector 205 FanetGpsrNormal.grayhole[21].wlan[0].radio receptionState:vector ETV
attr interpolationmode sample-hold
attr source receptionStateChanged
attr title "Radio reception state, vector"
205	3028901 52341 0 1761561 0 45.46818026109 1743 1 3 3485 8711
205	16581952 4323 1766923 1914136 45.612452844602 49.391639912805 140 1 3 280 700
vector 206 FanetGpsrNormal.grayhole[21].wlan[0].radio transmissionState:vector ETV
attr interpolationmode sample-hold
attr source transmissionStateChanged
attr title "Radio transmission state, vector"
206	3081242 2715 0 1744744 0 45.112326159282 91 1 2 136 226
206	16586275 307 1800261 1895330 46.49347118172 48.950933831419 10 1 2 15 25
vector 207 FanetGpsrNormal.grayhole[22].wlan[0].radio receptionState:vector ETV
attr interpolationmode sample-hold
attr source receptionStateChanged
attr title "Radio reception state, vector"
207	3083957 46170 0 1753435 0 45.316663196739 1536 1 3 3071 7675
207	16586582 4383 1763921 1916249 45.527624869893 49.429683104656 142 1 3 284 710
vector 208 FanetGpsrNormal.grayhole[22].wlan[0].radio transmissionState:vector ETV
attr interpolationmode sample-hold
attr source transmissionStateChanged
attr title "Radio transmission state, vector"
208	3130127 2714 0 1727687 0 44.660818251687 91 1 2 136 226
208	16590965 309 1770078 1905553 45.756062108325 49.206585358734 10 1 2 15 25
vector 209 FanetGpsrNormal.grayhole[23].wlan[0].radio receptionState:vector ETV
attr interpolationmode sample-hold
attr source receptionStateChanged
attr title "Radio reception state, vector"
209	3132841 57654 0 1761930 0 45.481451247501 1915 1 3 3829 9571
209	16591274 5314 1762674 1916562 45.498237182767 49.448013322788 172 1 3 344 860
vector 210 FanetGpsrNormal.grayhole[23].wlan[0].radio transmissionState:vector ETV
attr interpolationmode sample-hold
attr source transmissionStateChanged
attr title "Radio transmission state, vector"
210	3190495 2716 0 1750015 0 45.218102699983 91 1 2 136 226
210	16596588 248 1783393 1896876 46.053431761219 48.975432399566 8 1 2 12 20
vector 211 FanetGpsrNormal.grayhole[24].wlan[0].radio receptionState:vector ETV
attr interpolationmode sample-hold
attr source receptionStateChanged
attr title "Radio reception state, vector"
211	3193211 47170 0 1760930 0 45.461085167115 1571 1 3 3141 7851
211	16596836 4324 1762361 1912876 45.495491065904 49.358378302467 140 1 3 280 700
vector 212 FanetGpsrNormal.grayhole[24].wlan[0].radio transmissionState:vector ETV
attr interpolationmode sample-hold
attr source transmissionStateChanged
attr title "Radio transmission state, vector"
212	3240381 2597 0 1747808 0 45.176309028083 87 1 2 130 216
212	16601160 186 1794102 1874997 46.302923117069 48.429509583303 6 1 2 9 15
vector 213 FanetGpsrNormal.grayhole[25].wlan[0].radio receptionState:vector ETV
attr interpolationmode sample-hold
attr source receptionStateChanged
attr title "Radio reception state, vector"
213	3242978 68662 0 1761509 0 45.468179974191 2284 1 3 4567 11415
213	16601346 6484 1763602 1911708 45.524948451646 49.335729428819 210 1 3 420 1050
vector 214 FanetGpsrNormal.grayhole[25].wlan[0].radio transmissionState:vector ETV
attr interpolationmode sample-hold
attr source transmissionStateChanged
attr title "Radio transmission state, vector"
214	3311640 2595 0 1733972 0 44.817011383272 87 1 2 130 216
214	16607830 185 1770377 1878511 45.768240681854 48.525856862919 6 1 2 9 15
vector 215 FanetGpsrNormal.grayhole[26].wlan[0].radio receptionState:vector ETV
attr interpolationmode sample-hold
attr source receptionStateChanged
attr title "Radio reception state, vector"
215	3314235 65326 0 1761882 0 45.481451116538 2177 1 3 4353 10877
215	16608015 5872 1765158 1916157 45.549336653788 49.429682415004 190 1 3 380 950
vector 216 FanetGpsrNormal.grayhole[26].wlan[0].radio transmissionState:vector ETV
attr interpolationmode sample-hold
attr source transmissionStateChanged
attr title "Radio transmission state, vector"
216	3379561 2776 0 1719294 0 44.399708861858 93 1 2 139 231
216	16613887 247 1772838 1913184 45.799421060599 49.369524060655 8 1 2 12 20
vector 217 FanetGpsrNormal.grayhole[27].wlan[0].radio receptionState:vector ETV
attr interpolationmode sample-hold
attr source receptionStateChanged
attr title "Radio reception state, vector"
217	3382337 64390 0 1761934 0 45.48145125118 2146 1 3 4291 10725
217	16614134 5615 1763905 1916261 45.527624504118 49.429683191879 182 1 3 364 910
vector 218 FanetGpsrNormal.grayhole[27].wlan[0].radio transmissionState:vector ETV
attr interpolationmode sample-hold
attr source transmissionStateChanged
attr title "Radio transmission state, vector"
218	3446727 2839 0 1740398 0 44.97115890137 95 1 2 142 236
218	16619749 309 1765829 1899677 45.570479310353 49.056828106894 10 1 2 15 25
vector 219 FanetGpsrNormal.grayhole[28].wlan[0].radio receptionState:vector ETV
attr interpolationmode sample-hold
attr source receptionStateChanged
attr title "Radio reception state, vector"
219	3449566 58722 0 1762151 0 45.49121707997 1954 1 3 3907 9765
219	16620058 5531 1764856 1914950 45.545382199246 49.40991928255 179 1 3 358 894
vector 220 FanetGpsrNormal.grayhole[28].wlan[0].radio transmissionState:vector ETV
attr interpolationmode sample-hold
attr source transmissionStateChanged
attr title "Radio transmission state, vector"
220	3508288 2473 0 1733535 0 44.789153621439 83 1 2 124 206
220	16625589 248 1780765 1905851 45.988055718366 49.223394576135 8 1 2 12 20
vector 221 FanetGpsrNormal.grayhole[29].wlan[0].radio receptionState:vector ETV
attr interpolationmode sample-hold
attr source receptionStateChanged
attr title "Radio reception state, vector"
221	3510761 67590 0 1761922 0 45.481451232351 2254 1 3 4507 11263
221	16625837 5814 1764524 1916598 45.533266129928 49.448013421865 188 1 3 376 940
vector 222 FanetGpsrNormal.grayhole[29].wlan[0].radio transmissionState:vector ETV
attr interpolationmode sample-hold
attr source transmissionStateChanged
attr title "Radio transmission state, vector"
222	3578351 2663 0 1705947 0 44.110710009139 89 1 2 133 221
222	16631651 310 1766140 1908049 45.573084076168 49.259562796119 10 1 2 15 25
vector 223 FanetGpsrNormal.grayhole[30].wlan[0].radio receptionState:vector ETV
attr interpolationmode sample-hold
attr source receptionStateChanged
attr title "Radio reception state, vector"
223	3581014 16197 0 1757416 0 45.390589246381 543 1 3 1085 2711
223	16631961 1112 1763323 1908384 45.512330029536 49.27165188975 36 1 3 72 180
vector 224 FanetGpsrNormal.grayhole[30].wlan[0].radio transmissionState:vector ETV
attr interpolationmode sample-hold
attr source transmissionStateChanged
attr title "Radio transmission state, vector"
224	3597211 2785 0 1738952 0 44.930673662712 93 1 2 139 231
224	16633073 248 1775451 1898460 45.861781736837 49.032103268802 8 1 2 12 20
vector 225 FanetGpsrNormal.grayhole[31].wlan[0].radio receptionState:vector ETV
attr interpolationmode sample-hold
attr source receptionStateChanged
attr title "Radio reception state, vector"
225	3599996 67655 0 1761906 0 45.481451192139 2252 1 3 4503 11255
225	16633321 6244 1763907 1916570 45.527624609187 49.448013326623 202 1 3 404 1010
vector 226 FanetGpsrNormal.grayhole[31].wlan[0].radio transmissionState:vector ETV
attr interpolationmode sample-hold
attr source transmissionStateChanged
attr title "Radio transmission state, vector"
226	3667651 2720 0 1736151 0 44.882380103133 91 1 2 136 226
226	16639565 247 1768098 1899357 45.634540706408 49.053448789659 8 1 2 12 20
vector 227 FanetGpsrNormal.grayhole[32].wlan[0].radio receptionState:vector ETV
attr interpolationmode sample-hold
attr source receptionStateChanged
attr title "Radio reception state, vector"
227	3670371 50437 0 1761485 0 45.468179716937 1679 1 3 3357 8391
227	16639812 3886 1762660 1912020 45.498236692086 49.344560112824 126 1 3 252 630
vector 228 FanetGpsrNormal.grayhole[32].wlan[0].radio transmissionState:vector ETV
attr interpolationmode sample-hold
attr source transmissionStateChanged
attr title "Radio transmission state, vector"
228	3720808 3191 0 1732911 0 44.778163908656 107 1 2 160 266
228	16643698 186 1788226 1897878 46.128764071039 49.005168644619 6 1 2 9 15
vector 229 FanetGpsrNormal.grayhole[33].wlan[0].radio receptionState:vector ETV
attr interpolationmode sample-hold
attr source receptionStateChanged
attr title "Radio reception state, vector"
229	3723999 71103 0 1760946 0 45.46108523129 2369 1 3 4737 11841
229	16643884 6549 1762363 1912916 45.495491098182 49.358378519854 212 1 3 424 1060
vector 230 FanetGpsrNormal.grayhole[33].wlan[0].radio transmissionState:vector ETV
attr interpolationmode sample-hold
attr source transmissionStateChanged
attr title "Radio transmission state, vector"
230	3795102 2591 0 1727048 0 44.63548470768 87 1 2 130 216
230	16650433 246 1786823 1902581 46.094480404398 49.106905898916 8 1 2 12 20
vector 231 FanetGpsrNormal.grayhole[34].wlan[0].radio receptionState:vector ETV
attr interpolationmode sample-hold
attr source receptionStateChanged
attr title "Radio reception state, vector"
231	3797693 61943 0 1761846 0 45.48145099263 2053 1 3 4105 10259
231	16650679 7408 1762882 1916530 45.498603365145 49.448013170989 240 1 3 480 1200
vector 232 FanetGpsrNormal.grayhole[34].wlan[0].radio transmissionState:vector ETV
attr interpolationmode sample-hold
attr source transmissionStateChanged
attr title "Radio transmission state, vector"
232	3859636 2884 0 1751915 0 45.247008938017 97 1 2 145 241
232	16658087 247 1804646 1891787 46.604492738147 48.860859852192 8 1 2 12 20
vector 233 FanetGpsrNormal.grayhole[35].wlan[0].radio receptionState:vector ETV
attr interpolationmode sample-hold
attr source receptionStateChanged
attr title "Radio reception state, vector"
233	3862520 69807 0 1761890 0 45.481451135358 2328 1 3 4655 11635
233	16658334 5739 1762364 1916610 45.495491184414 49.44801349709 186 1 3 372 930
vector 234 FanetGpsrNormal.grayhole[35].wlan[0].radio transmissionState:vector ETV
attr interpolationmode sample-hold
attr source transmissionStateChanged
attr title "Radio transmission state, vector"
234	3932327 2653 0 1739209 0 44.939335794325 89 1 2 133 221
234	16664073 310 1763900 1880860 45.527623948407 48.616194213412 10 1 2 15 25
vector 235 FanetGpsrNormal.grayhole[36].wlan[0].radio receptionState:vector ETV
attr interpolationmode sample-hold
attr source receptionStateChanged
attr title "Radio reception state, vector"
235	3934980 40375 0 1761216 0 45.466328747007 1343 1 3 2685 6711
235	16664383 3523 1766921 1912598 45.612452781968 49.352834131925 114 1 3 228 570
vector 236 FanetGpsrNormal.grayhole[36].wlan[0].radio transmissionState:vector ETV
attr interpolationmode sample-hold
attr source transmissionStateChanged
attr title "Radio transmission state, vector"
236	3975355 2589 0 1757807 0 45.400825706912 87 1 2 130 216
236	16667906 247 1789157 1914135 46.17916643596 49.391639663508 8 1 2 12 20
vector 237 FanetGpsrNormal.grayhole[37].wlan[0].radio receptionState:vector ETV
attr interpolationmode sample-hold
attr source receptionStateChanged
attr title "Radio reception state, vector"
237	3977944 50308 0 1760886 0 45.461084406933 1673 1 3 3345 8361
237	16668153 5002 1762351 1912936 45.495490601046 49.358378654835 162 1 3 324 810
vector 238 FanetGpsrNormal.grayhole[37].wlan[0].radio transmissionState:vector ETV
attr interpolationmode sample-hold
attr source transmissionStateChanged
attr title "Radio transmission state, vector"
238	4028252 2766 0 1746873 0 45.165707396244 93 1 2 139 231
238	16673155 247 1798755 1907747 46.437809721329 49.258858434989 8 1 2 12 20
vector 239 FanetGpsrNormal.grayhole[38].wlan[0].radio receptionState:vector ETV
attr interpolationmode sample-hold
attr source receptionStateChanged
attr title "Radio reception state, vector"
239	4031018 53986 0 1761493 0 45.468179796228 1801 1 3 3601 9001
239	16673402 4015 1767177 1914152 45.612477399899 49.391640288423 130 1 3 260 650
vector 240 FanetGpsrNormal.grayhole[38].wlan[0].radio transmissionState:vector ETV
attr interpolationmode sample-hold
attr source transmissionStateChanged
attr title "Radio transmission state, vector"
240	4085004 2786 0 1761179 0 45.466328122092 93 1 2 139 231
240	16677417 185 1807783 1894099 46.697755706729 48.920735459214 6 1 2 9 15
vector 241 FanetGpsrNormal.grayhole[39].wlan[0].radio receptionState:vector ETV
attr interpolationmode sample-hold
attr source receptionStateChanged
attr title "Radio reception state, vector"
241	4087790 64719 0 1760906 0 45.461085027039 2153 1 3 4305 10761
241	16677602 6424 1762355 1912872 45.495490874909 49.358378117114 208 1 3 416 1040
vector 242 FanetGpsrNormal.grayhole[39].wlan[0].radio transmissionState:vector ETV
attr interpolationmode sample-hold
attr source transmissionStateChanged
attr title "Radio transmission state, vector"
242	4152509 2774 0 1730649 0 44.704209604904 93 1 2 139 231
242	16684026 248 1763577 1895005 45.524947494967 48.939142728828 8 1 2 12 20
vector 243 FanetGpsrNormal.grayhole[40].wlan[0].radio receptionState:vector ETV
attr interpolationmode sample-hold
attr source receptionStateChanged
attr title "Radio reception state, vector"
243	4155283 50442 0 1762215 0 45.491217330762 1678 1 3 3355 8385
243	16684274 4816 1764858 1915891 45.545382249522 49.428845510589 156 1 3 312 780
vector 244 FanetGpsrNormal.grayhole[40].wlan[0].radio transmissionState:vector ETV
attr interpolationmode sample-hold
attr source transmissionStateChanged
attr title "Radio transmission state, vector"
244	4205725 2840 0 1737340 0 44.897691174781 95 1 2 142 236
244	16689090 310 1791798 1902905 46.247212306596 49.111635870671 10 1 2 15 25
vector 245 FanetGpsrNormal.grayhole[41].wlan[0].radio receptionState:vector ETV
attr interpolationmode sample-hold
attr source receptionStateChanged
attr title "Radio reception state, vector"
245	4208565 80592 0 1761834 0 45.481450965033 2678 1 3 5355 13385
245	16689400 7175 1762671 1916526 45.498237079594 49.448013145099 232 1 3 464 1160
vector 246 FanetGpsrNormal.grayhole[41].wlan[0].radio transmissionState:vector ETV
attr interpolationmode sample-hold
attr source transmissionStateChanged
attr title "Radio transmission state, vector"
246	4289157 2655 0 1755151 0 45.329705470844 89 1 2 133 221
246	16696575 185 1789770 1904488 46.193149957106 49.167362228172 6 1 2 9 15
vector 247 FanetGpsrNormal.grayhole[42].wlan[0].radio receptionState:vector ETV
attr interpolationmode sample-hold
attr source receptionStateChanged
attr title "Radio reception state, vector"
247	4291812 72212 0 1761850 0 45.481451041811 2404 1 3 4807 12013
247	16696760 6735 1764528 1916594 45.533266148653 49.448013419755 218 1 3 436 1090
vector 248 FanetGpsrNormal.grayhole[42].wlan[0].radio transmissionState:vector ETV
attr interpolationmode sample-hold
attr source transmissionStateChanged
attr title "Radio transmission state, vector"
248	4364024 2710 0 1736471 0 44.883505447441 91 1 2 136 226
248	16703495 307 1765157 1916156 45.549336434343 49.429682195559 10 1 2 15 25
vector 249 FanetGpsrNormal.grayhole[43].wlan[0].radio receptionState:vector ETV
attr interpolationmode sample-hold
attr source receptionStateChanged
attr title "Radio reception state, vector"
249	4366734 39056 0 1761569 0 45.468180322591 1299 1 3 2597 6491
249	16703802 3218 1762664 1911984 45.49823680571 49.344559764166 104 1 3 208 520
vector 250 FanetGpsrNormal.grayhole[43].wlan[0].radio transmissionState:vector ETV
attr interpolationmode sample-hold
attr source transmissionStateChanged
attr title "Radio transmission state, vector"
250	4405790 2719 0 1749726 0 45.212048638751 91 1 2 136 226
250	16707020 186 1785593 1885416 46.078435877106 48.750440470315 6 1 2 9 15
vector 251 FanetGpsrNormal.grayhole[44].wlan[0].radio receptionState:vector ETV
attr interpolationmode sample-hold
attr source receptionStateChanged
attr title "Radio reception state, vector"
251	4408509 54879 0 1758150 0 45.401383363507 1826 1 3 3651 9123
251	16707206 5619 1764526 1916197 45.533266142652 49.429682742489 182 1 3 364 910
vector 252 FanetGpsrNormal.grayhole[44].wlan[0].radio transmissionState:vector ETV
attr interpolationmode sample-hold
attr source transmissionStateChanged
attr title "Radio transmission state, vector"
252	4463388 2948 0 1741367 0 44.995909517537 99 1 2 148 246
252	16712825 246 1799669 1890858 46.483884548071 48.84844836723 8 1 2 12 20
vector 253 FanetGpsrNormal.grayhole[45].wlan[0].radio receptionState:vector ETV
attr interpolationmode sample-hold
attr source receptionStateChanged
attr title "Radio reception state, vector"
253	4466336 63315 0 1761830 0 45.481450907173 2099 1 3 4197 10489
253	16713071 7728 1762879 1916534 45.498603335675 49.448013180919 250 1 3 500 1250
vector 254 FanetGpsrNormal.grayhole[45].wlan[0].radio transmissionState:vector ETV
attr interpolationmode sample-hold
attr source transmissionStateChanged
attr title "Radio transmission state, vector"
254	4529651 2770 0 1749092 0 45.205536189162 93 1 2 139 231
254	16720799 186 1801929 1868062 46.538102043327 48.222401046565 6 1 2 9 15
vector 255 FanetGpsrNormal.grayhole[46].wlan[0].radio receptionState:vector ETV
attr interpolationmode sample-hold
attr source receptionStateChanged
attr title "Radio reception state, vector"
255	4532421 56893 0 1761489 0 45.46817978995 1898 1 3 3795 9485
255	16720985 4512 1767173 1914176 45.612477341518 49.391640371761 146 1 3 292 730
vector 256 FanetGpsrNormal.grayhole[46].wlan[0].radio transmissionState:vector ETV
attr interpolationmode sample-hold
attr source transmissionStateChanged
attr title "Radio transmission state, vector"
256	4589314 2656 0 1722014 0 44.503852051122 89 1 2 133 221
256	16725497 248 1774206 1876158 45.831257642246 48.461510617423 8 1 2 12 20
vector 257 FanetGpsrNormal.grayhole[47].wlan[0].radio receptionState:vector ETV
attr interpolationmode sample-hold
attr source receptionStateChanged
attr title "Radio reception state, vector"
257	4591970 45580 0 1757852 0 45.400826480121 1519 1 3 3037 7591
257	16725745 3958 1767537 1915915 45.613719064565 49.428845619492 128 1 3 256 640
vector 258 FanetGpsrNormal.grayhole[47].wlan[0].radio transmissionState:vector ETV
attr interpolationmode sample-hold
attr source transmissionStateChanged
attr title "Radio transmission state, vector"
258	4637550 2776 0 1728309 0 44.672144719302 93 1 2 139 231
258	16729703 307 1766911 1903529 45.612452008759 49.117362260488 10 1 2 15 25
vector 259 FanetGpsrNormal.grayhole[48].wlan[0].radio receptionState:vector ETV
attr interpolationmode sample-hold
attr source receptionStateChanged
attr title "Radio reception state, vector"
259	4640326 69438 0 1760918 0 45.461085143219 2311 1 3 4621 11551
259	16730010 6611 1762360 1912940 45.495491061979 49.358378698627 214 1 3 428 1070
vector 260 FanetGpsrNormal.grayhole[48].wlan[0].radio transmissionState:vector ETV
attr interpolationmode sample-hold
attr source transmissionStateChanged
attr title "Radio transmission state, vector"
260	4709764 2892 0 1750644 0 45.223433088185 97 1 2 145 241
260	16736621 310 1776247 1888031 45.863817265724 48.809906752454 10 1 2 15 25
vector 261 FanetGpsrNormal.grayhole[49].wlan[0].radio receptionState:vector ETV
attr interpolationmode sample-hold
attr source receptionStateChanged
attr title "Radio reception state, vector"
261	4712656 70276 0 1761537 0 45.468180156752 2343 1 3 4685 11709
261	16736931 6485 1763599 1912948 45.524948290319 49.358378882485 210 1 3 420 1050
vector 262 FanetGpsrNormal.grayhole[49].wlan[0].radio transmissionState:vector ETV
attr interpolationmode sample-hold
attr source transmissionStateChanged
attr title "Radio transmission state, vector"
262	4782932 2595 0 1721283 0 44.444493872253 87 1 2 130 216
262	16743416 248 1777485 1891464 45.894936214901 48.859812012781 8 1 2 12 20
vector 263 FanetGpsrNormal.grayhole[50].wlan[0].radio receptionState:vector ETV
attr interpolationmode sample-hold
attr source receptionStateChanged
attr title "Radio reception state, vector"
263	4785527 56553 0 1760898 0 45.461085005345 1881 1 3 3761 9401
263	16743664 5805 1762354 1911664 45.495490855723 49.335729059851 188 1 3 376 940
vector 264 FanetGpsrNormal.grayhole[50].wlan[0].radio transmissionState:vector ETV
attr interpolationmode sample-hold
attr source transmissionStateChanged
attr title "Radio transmission state, vector"
264	4842080 2723 0 1729560 0 44.698973213695 91 1 2 136 226
264	16749469 307 1783704 1912867 46.05636088364 49.358377908496 10 1 2 15 25
vector 265 FanetGpsrNormal.grayhole[51].wlan[0].radio receptionState:vector ETV
attr interpolationmode sample-hold
attr source receptionStateChanged
attr title "Radio reception state, vector"
265	4844803 60320 0 1761886 0 45.481451126062 2007 1 3 4013 10031
265	16749776 4701 1762666 1916574 45.498236867605 49.448013352781 152 1 3 304 760
vector 266 FanetGpsrNormal.grayhole[51].wlan[0].radio transmissionState:vector ETV
attr interpolationmode sample-hold
attr source transmissionStateChanged
attr title "Radio transmission state, vector"
266	4905123 2710 0 1735544 0 44.880273974638 91 1 2 136 226
266	16754477 247 1779839 1892123 45.942076254635 48.867110674407 8 1 2 12 20
vector 267 FanetGpsrNormal.grayhole[52].wlan[0].radio receptionState:vector ETV
attr interpolationmode sample-hold
attr source receptionStateChanged
attr title "Radio reception state, vector"
267	4907833 68599 0 1761196 0 45.466328590747 2285 1 3 4569 11421
267	16754724 5241 1762668 1910102 45.498236910439 49.306517293044 170 1 3 340 850
vector 268 FanetGpsrNormal.grayhole[52].wlan[0].radio transmissionState:vector ETV
attr interpolationmode sample-hold
attr source transmissionStateChanged
attr title "Radio transmission state, vector"
268	4976432 2474 0 1761480 0 45.468179327573 83 1 2 124 206
268	16759965 186 1803272 1882181 46.555313173681 48.662058455775 6 1 2 9 15
vector 269 FanetGpsrNormal.grayhole[53].wlan[0].radio receptionState:vector ETV
attr interpolationmode sample-hold
attr source receptionStateChanged
attr title "Radio reception state, vector"
269	4978906 63801 0 1759745 0 45.436900631721 2123 1 3 4245 10609
[...]
attr title "packet drop: not addressed to us, vector(packetBytes)"
1409	16331020 863 364436 1753992 9.781958514664 45.319390961731 25 1084 1084 27100 29376400
1409	17791091 70 1763083 1776133 45.498968698478 45.863492909359 2 1084 1084 2168 2350112
vector 1410 FanetGpsrNormal.grayhole[64].wlan[0].mac packetDropNotAddressedToUs:vector(packetBytes) ETV
attr interpolationmode none
attr source packetDropReasonIsNotAddressedToUs(packetDropped)
attr title "packet drop: not addressed to us, vector(packetBytes)"
1410	16331883 481 364442 1070716 9.781958562682 27.835477034909 14 1084 1084 15176 16450784
vector 1411 FanetGpsrNormal.grayhole[44].wlan[0].mac packetDropNotAddressedToUs:vector(packetBytes) ETV
attr interpolationmode none
attr source packetDropReasonIsNotAddressedToUs(packetDropped)
attr title "packet drop: not addressed to us, vector(packetBytes)"
1411	16332364 481 364446 1070728 9.781958582485 27.835477140297 14 1084 1084 15176 16450784
vector 1412 FanetGpsrNormal.grayhole[88].wlan[0].mac packetDropNotAddressedToUs:vector(packetBytes) ETV
attr interpolationmode none
attr source packetDropReasonIsNotAddressedToUs(packetDropped)
attr title "packet drop: not addressed to us, vector(packetBytes)"
1412	16332845 898 364450 1754005 9.781958605233 45.31939104267 26 1084 1084 28184 30551456
1412	17791161 70 1763096 1776146 45.498968779417 45.863492990298 2 1084 1084 2168 2350112
vector 1413 FanetGpsrNormal.grayhole[82].wlan[0].mac packetDropNotAddressedToUs:vector(packetBytes) ETV
attr interpolationmode none
attr source packetDropReasonIsNotAddressedToUs(packetDropped)
attr title "packet drop: not addressed to us, vector(packetBytes)"
1413	16333743 864 364452 1754007 9.781958620951 45.31939107051 25 1084 1084 27100 29376400
1413	17791231 70 1763098 1776148 45.498968807257 45.863493018138 2 1084 1084 2168 2350112
vector 1414 FanetGpsrNormal.grayhole[94].wlan[0].mac packetDropNotAddressedToUs:vector(packetBytes) ETV
attr interpolationmode none
attr source packetDropReasonIsNotAddressedToUs(packetDropped)
attr title "packet drop: not addressed to us, vector(packetBytes)"
1414	16334607 272 364460 1010497 9.781958764241 26.365711620875 8 1084 1084 8672 9400448
vector 1415 FanetGpsrNormal.grayhole[0].wlan[0].mac packetDropNotAddressedToUs:vector(packetBytes) ETV
attr interpolationmode none
attr source packetDropReasonIsNotAddressedToUs(packetDropped)
attr title "packet drop: not addressed to us, vector(packetBytes)"
1415	16334879 236 364462 909255 9.781958779733 23.802874201774 7 1084 1084 7588 8225392
vector 1416 FanetGpsrNormal.grayhole[12].wlan[0].mac packetDropIncorrectlyReceived:vector(packetBytes) ETV
attr interpolationmode none
attr source packetDropReasonIsIncorrectlyReceived(packetDropped)
attr title "packet drop: incorrectly received, vector(packetBytes)"
1416	16335115 162 369764 1184160 9.935727207582 30.762205950163 5 56 1084 1308 1187600
vector 1417 FanetGpsrNormal.grayhole[26].wlan[0].mac packetDropIncorrectlyReceived:vector(packetBytes) ETV
attr interpolationmode none
attr source packetDropReasonIsIncorrectlyReceived(packetDropped)
attr title "packet drop: incorrectly received, vector(packetBytes)"
1417	16335277 128 369766 1184158 9.935727248762 30.762205940812 4 56 56 224 12544
vector 1418 FanetGpsrNormal.grayhole[3].wlan[0].mac packetDropIncorrectlyReceived:vector(packetBytes) ETV
attr interpolationmode none
attr source packetDropReasonIsIncorrectlyReceived(packetDropped)
attr title "packet drop: incorrectly received, vector(packetBytes)"
1418	16335405 130 369772 1184174 9.935727403812 30.762206031851 4 56 1084 1252 1184464
vector 1419 FanetGpsrNormal.grayhole[44].wlan[0].mac packetDropIncorrectlyReceived:vector(packetBytes) ETV
attr interpolationmode none
attr source packetDropReasonIsIncorrectlyReceived(packetDropped)
attr title "packet drop: incorrectly received, vector(packetBytes)"
1419	16335535 96 369778 1184146 9.935727426943 30.762205387717 3 56 56 168 9408
vector 1420 FanetGpsrNormal.grayhole[29].wlan[0].mac packetDropIncorrectlyReceived:vector(packetBytes) ETV
attr interpolationmode none
attr source packetDropReasonIsIncorrectlyReceived(packetDropped)
attr title "packet drop: incorrectly received, vector(packetBytes)"
1420	16335631 131 369780 1184162 9.935727472492 30.762205955103 4 56 1084 1252 1184464
vector 1421 FanetGpsrNormal.grayhole[64].wlan[0].mac packetDropIncorrectlyReceived:vector(packetBytes) ETV
attr interpolationmode none
attr source packetDropReasonIsIncorrectlyReceived(packetDropped)
attr title "packet drop: incorrectly received, vector(packetBytes)"
1421	16335762 64 369786 1184166 9.935727562683 30.762205982719 2 56 56 112 6272
vector 1422 FanetGpsrNormal.grayhole[5].wlan[0].mac packetDropIncorrectlyReceived:vector(packetBytes) ETV
attr interpolationmode none
attr source packetDropReasonIsIncorrectlyReceived(packetDropped)
attr title "packet drop: incorrectly received, vector(packetBytes)"
1422	16335826 128 369792 1184152 9.935727648045 30.762205693746 4 56 56 224 12544
vector 1423 FanetGpsrNormal.grayhole[94].wlan[0].mac packetDropIncorrectlyReceived:vector(packetBytes) ETV
attr interpolationmode none
attr source packetDropReasonIsIncorrectlyReceived(packetDropped)
attr title "packet drop: incorrectly received, vector(packetBytes)"
1423	16335954 63 369800 496104 9.935727688236 13.146011270799 2 56 56 112 6272
vector 1424 FanetGpsrNormal.grayhole[22].wlan[0].mac packetDropIncorrectlyReceived:vector(packetBytes) ETV
attr interpolationmode none
attr source packetDropReasonIsIncorrectlyReceived(packetDropped)
attr title "packet drop: incorrectly received, vector(packetBytes)"
1424	16336017 31 369812 369812 9.935727804201 9.935727804201 1 56 56 56 3136
vector 1425 FanetGpsrNormal.grayhole[81].wlan[0].mac packetDropIncorrectlyReceived:vector(packetBytes) ETV
attr interpolationmode none
attr source packetDropReasonIsIncorrectlyReceived(packetDropped)
attr title "packet drop: incorrectly received, vector(packetBytes)"
1425	16336048 32 453491 453491 12.011802764718 12.011802764718 1 56 56 56 3136
1425	17791301 33 1771267 1771267 45.774325923091 45.774325923091 1 56 56 56 3136
vector 1426 FanetGpsrNormal.grayhole[53].wlan[0].mac packetDropIncorrectlyReceived:vector(packetBytes) ETV
attr interpolationmode none
attr source packetDropReasonIsIncorrectlyReceived(packetDropped)
attr title "packet drop: incorrectly received, vector(packetBytes)"
1426	16336080 65 453497 1690530 12.011802807516 43.722792578293 2 56 56 112 6272
1426	17791334 31 1771207 1771207 45.7743256101 45.7743256101 1 56 56 56 3136
vector 1427 FanetGpsrNormal.grayhole[1].wlan[0].mac packetDropIncorrectlyReceived:vector(packetBytes) ETV
attr interpolationmode none
attr source packetDropReasonIsIncorrectlyReceived(packetDropped)
attr title "packet drop: incorrectly received, vector(packetBytes)"
1427	16336145 32 453511 453511 12.011803008744 12.011803008744 1 56 56 56 3136
1427	17791365 33 1771272 1771272 45.774325982307 45.774325982307 1 56 56 56 3136
vector 1428 FanetGpsrNormal.grayhole[92].wlan[0].mac packetDropIncorrectlyReceived:vector(packetBytes) ETV
attr interpolationmode none
attr source packetDropReasonIsIncorrectlyReceived(packetDropped)
attr title "packet drop: incorrectly received, vector(packetBytes)"
1428	16336177 32 453513 453513 12.011803017684 12.011803017684 1 56 56 56 3136
vector 1429 FanetGpsrNormal.grayhole[65].wlan[0].mac packetDropIncorrectlyReceived:vector(packetBytes) ETV
attr interpolationmode none
attr source packetDropReasonIsIncorrectlyReceived(packetDropped)
attr title "packet drop: incorrectly received, vector(packetBytes)"
1429	16336209 65 453523 1520939 12.011803046129 39.454974957074 2 56 56 112 6272
vector 1430 FanetGpsrNormal.host[4].wlan[0].mac packetDropIncorrectlyReceived:vector(packetBytes) ETV
attr interpolationmode none
attr source packetDropReasonIsIncorrectlyReceived(packetDropped)
attr title "packet drop: incorrectly received, vector(packetBytes)"
1430	16336274 32 453553 453553 12.011803303899 12.011803303899 1 56 56 56 3136
vector 1431 FanetGpsrNormal.grayhole[42].wlan[0].mac packetDropIncorrectlyReceived:vector(packetBytes) ETV
attr interpolationmode none
attr source packetDropReasonIsIncorrectlyReceived(packetDropped)
attr title "packet drop: incorrectly received, vector(packetBytes)"
1431	16336306 132 496070 1184156 13.146010799985 30.762205917789 4 56 1084 1252 1184464
vector 1432 FanetGpsrNormal.grayhole[84].wlan[0].mac packetDropIncorrectlyReceived:vector(packetBytes) ETV
attr interpolationmode none
attr source packetDropReasonIsIncorrectlyReceived(packetDropped)
attr title "packet drop: incorrectly received, vector(packetBytes)"
1432	16336438 100 579215 1184172 15.301929825214 30.762206019807 3 56 1084 1196 1181328
vector 1433 FanetGpsrNormal.grayhole[31].wlan[0].mac packetDropIncorrectlyReceived:vector(packetBytes) ETV
attr interpolationmode none
attr source packetDropReasonIsIncorrectlyReceived(packetDropped)
attr title "packet drop: incorrectly received, vector(packetBytes)"
1433	16336538 67 579235 1010477 15.301929938852 26.365711395631 2 56 1084 1140 1178192
vector 1434 FanetGpsrNormal.grayhole[45].wlan[0].mac packetDropIncorrectlyReceived:vector(packetBytes) ETV
attr interpolationmode none
attr source packetDropReasonIsIncorrectlyReceived(packetDropped)
attr title "packet drop: incorrectly received, vector(packetBytes)"
1434	16336605 100 579251 1184182 15.301930060321 30.762206209594 3 56 1084 1196 1181328
vector 1435 FanetGpsrNormal.grayhole[34].wlan[0].mac packetDropIncorrectlyReceived:vector(packetBytes) ETV
attr interpolationmode none
attr source packetDropReasonIsIncorrectlyReceived(packetDropped)
attr title "packet drop: incorrectly received, vector(packetBytes)"
1435	16336705 100 579261 1184180 15.301930124796 30.762206207775 3 56 1084 1196 1181328
vector 1436 FanetGpsrNormal.grayhole[88].wlan[0].mac packetDropIncorrectlyReceived:vector(packetBytes) ETV
attr interpolationmode none
attr source packetDropReasonIsIncorrectlyReceived(packetDropped)
attr title "packet drop: incorrectly received, vector(packetBytes)"
1436	16336805 34 1010487 1010487 26.36571144852 26.36571144852 1 1084 1084 1084 1175056
vector 1437 FanetGpsrNormal.grayhole[82].wlan[0].mac packetDropIncorrectlyReceived:vector(packetBytes) ETV
attr interpolationmode none
attr source packetDropReasonIsIncorrectlyReceived(packetDropped)
attr title "packet drop: incorrectly received, vector(packetBytes)"
1437	16336839 35 1010489 1010489 26.365711469667 26.365711469667 1 1084 1084 1084 1175056
vector 1438 FanetGpsrNormal.host[20].wlan[0].mac packetDropNotAddressedToUs:vector(packetBytes) ETV
attr interpolationmode none
attr source packetDropReasonIsNotAddressedToUs(packetDropped)
attr title "packet drop: not addressed to us, vector(packetBytes)"
1438	16336874 70 1061661 1070450 27.692307266851 27.835111226265 2 1084 1084 2168 2350112
vector 1439 FanetGpsrNormal.grayhole[89].wlan[0].mac packetDropNotAddressedToUs:vector(packetBytes) ETV
attr interpolationmode none
attr source packetDropReasonIsNotAddressedToUs(packetDropped)
attr title "packet drop: not addressed to us, vector(packetBytes)"
1439	16336944 560 1104242 1753982 28.776370115583 45.319390893727 16 1084 1084 17344 18800896
1439	17791398 70 1763073 1776123 45.498968630474 45.863492841355 2 1084 1084 2168 2350112
vector 1440 FanetGpsrNormal.host[1].wlan[0].mac packetDropIncorrectlyReceived:vector(packetBytes) ETV
attr interpolationmode none
attr source packetDropReasonIsIncorrectlyReceived(packetDropped)
attr title "packet drop: incorrectly received, vector(packetBytes)"
1440	16337504 65 1154638 1520931 30.076830172188 39.45497485689 2 56 56 112 6272
vector 1441 FanetGpsrNormal.grayhole[25].wlan[0].mac packetDropIncorrectlyReceived:vector(packetBytes) ETV
attr interpolationmode none
attr source packetDropReasonIsIncorrectlyReceived(packetDropped)
attr title "packet drop: incorrectly received, vector(packetBytes)"
1441	16337569 33 1154668 1154668 30.076830412556 30.076830412556 1 56 56 56 3136
vector 1442 FanetGpsrNormal.grayhole[49].wlan[0].mac packetDropIncorrectlyReceived:vector(packetBytes) ETV
attr interpolationmode none
attr source packetDropReasonIsIncorrectlyReceived(packetDropped)
attr title "packet drop: incorrectly received, vector(packetBytes)"
1442	16337602 65 1154682 1520901 30.076830537784 39.45497465985 2 56 56 112 6272
vector 1443 FanetGpsrNormal.grayhole[87].wlan[0].mac packetDropIncorrectlyReceived:vector(packetBytes) ETV
attr interpolationmode none
attr source packetDropReasonIsIncorrectlyReceived(packetDropped)
attr title "packet drop: incorrectly received, vector(packetBytes)"
1443	16337667 32 1154684 1154684 30.07683056123 30.07683056123 1 56 56 56 3136
vector 1444 FanetGpsrNormal.grayhole[69].wlan[0].mac packetDropIncorrectlyReceived:vector(packetBytes) ETV
attr interpolationmode none
attr source packetDropReasonIsIncorrectlyReceived(packetDropped)
attr title "packet drop: incorrectly received, vector(packetBytes)"
1444	16337699 33 1154690 1154690 30.076830613351 30.076830613351 1 56 56 56 3136
vector 1445 FanetGpsrNormal.host[3].wlan[0].mac packetDropIncorrectlyReceived:vector(packetBytes) ETV
attr interpolationmode none
attr source packetDropReasonIsIncorrectlyReceived(packetDropped)
attr title "packet drop: incorrectly received, vector(packetBytes)"
1445	16337732 33 1154700 1154700 30.076830761131 30.076830761131 1 56 56 56 3136
vector 1446 FanetGpsrNormal.grayhole[10].wlan[0].mac packetDropNotAddressedToUs:vector(packetBytes) ETV
attr interpolationmode none
attr source packetDropReasonIsNotAddressedToUs(packetDropped)
attr title "packet drop: not addressed to us, vector(packetBytes)"
1446	16337765 418 1315440 1754009 34.19792989955 45.319391073271 12 1084 1084 13008 14100672
1446	17791468 70 1763100 1776150 45.498968810018 45.863493020899 2 1084 1084 2168 2350112
vector 1447 FanetGpsrNormal.grayhole[13].wlan[0].mac packetDropIncorrectlyReceived:vector(packetBytes) ETV
attr interpolationmode none
attr source packetDropReasonIsIncorrectlyReceived(packetDropped)
attr title "packet drop: incorrectly received, vector(packetBytes)"
1447	16338183 33 1317950 1317950 34.268011820039 34.268011820039 1 56 56 56 3136
vector 1448 FanetGpsrNormal.grayhole[46].wlan[0].mac packetDropIncorrectlyReceived:vector(packetBytes) ETV
attr interpolationmode none
attr source packetDropReasonIsIncorrectlyReceived(packetDropped)
attr title "packet drop: incorrectly received, vector(packetBytes)"
1448	16338216 33 1520937 1520937 39.454974905666 39.454974905666 1 56 56 56 3136
vector 1449 FanetGpsrNormal.grayhole[9].wlan[0].mac packetDropIncorrectlyReceived:vector(packetBytes) ETV
attr interpolationmode none
attr source packetDropReasonIsIncorrectlyReceived(packetDropped)
attr title "packet drop: incorrectly received, vector(packetBytes)"
1449	16338249 33 1520949 1520949 39.454975041574 39.454975041574 1 56 56 56 3136
vector 1450 FanetGpsrNormal.grayhole[11].wlan[0].mac packetDropIncorrectlyReceived:vector(packetBytes) ETV
attr interpolationmode none
attr source packetDropReasonIsIncorrectlyReceived(packetDropped)
attr title "packet drop: incorrectly received, vector(packetBytes)"
1450	16338282 33 1690491 1690491 43.722792062693 43.722792062693 1 56 56 56 3136
vector 1451 FanetGpsrNormal.grayhole[6].wlan[0].mac packetDropIncorrectlyReceived:vector(packetBytes) ETV
attr interpolationmode none
attr source packetDropReasonIsIncorrectlyReceived(packetDropped)
attr title "packet drop: incorrectly received, vector(packetBytes)"
1451	16338315 33 1690494 1690494 43.722792130373 43.722792130373 1 56 56 56 3136
vector 1452 FanetGpsrNormal.host[8].wlan[0].mac packetDropIncorrectlyReceived:vector(packetBytes) ETV
attr interpolationmode none
attr source packetDropReasonIsIncorrectlyReceived(packetDropped)
attr title "packet drop: incorrectly received, vector(packetBytes)"
1452	16338348 33 1690496 1690496 43.722792142352 43.722792142352 1 56 56 56 3136
vector 1453 FanetGpsrNormal.grayhole[63].wlan[0].mac packetDropIncorrectlyReceived:vector(packetBytes) ETV
attr interpolationmode none
attr source packetDropReasonIsIncorrectlyReceived(packetDropped)
attr title "packet drop: incorrectly received, vector(packetBytes)"
1453	16338381 33 1690510 1690510 43.722792332878 43.722792332878 1 56 56 56 3136
vector 1454 FanetGpsrNormal.host[17].wlan[0].mac packetDropIncorrectlyReceived:vector(packetBytes) ETV
attr interpolationmode none
attr source packetDropReasonIsIncorrectlyReceived(packetDropped)
attr title "packet drop: incorrectly received, vector(packetBytes)"
1454	16338414 33 1690512 1690512 43.722792380751 43.722792380751 1 56 56 56 3136
vector 1455 FanetGpsrNormal.grayhole[75].wlan[0].mac packetDropIncorrectlyReceived:vector(packetBytes) ETV
attr interpolationmode none
attr source packetDropReasonIsIncorrectlyReceived(packetDropped)
attr title "packet drop: incorrectly received, vector(packetBytes)"
1455	16338447 33 1690514 1690514 43.722792395248 43.722792395248 1 56 56 56 3136
vector 1456 FanetGpsrNormal.grayhole[40].wlan[0].mac packetDropIncorrectlyReceived:vector(packetBytes) ETV
attr interpolationmode none
attr source packetDropReasonIsIncorrectlyReceived(packetDropped)
attr title "packet drop: incorrectly received, vector(packetBytes)"
1456	16338480 33 1690516 1690516 43.722792406022 43.722792406022 1 56 56 56 3136
vector 1457 FanetGpsrNormal.host[13].wlan[0].mac packetDropIncorrectlyReceived:vector(packetBytes) ETV
attr interpolationmode none
attr source packetDropReasonIsIncorrectlyReceived(packetDropped)
attr title "packet drop: incorrectly received, vector(packetBytes)"
1457	16338513 33 1690518 1690518 43.722792463598 43.722792463598 1 56 56 56 3136
vector 1458 FanetGpsrNormal.grayhole[97].wlan[0].mac packetDropIncorrectlyReceived:vector(packetBytes) ETV
attr interpolationmode none
attr source packetDropReasonIsIncorrectlyReceived(packetDropped)
attr title "packet drop: incorrectly received, vector(packetBytes)"
1458	16338546 33 1690525 1690525 43.722792542439 43.722792542439 1 56 56 56 3136
vector 1459 FanetGpsrNormal.grayhole[68].wlan[0].mac packetDropIncorrectlyReceived:vector(packetBytes) ETV
attr interpolationmode none
attr source packetDropReasonIsIncorrectlyReceived(packetDropped)
attr title "packet drop: incorrectly received, vector(packetBytes)"
1459	16338579 33 1690527 1690527 43.722792554344 43.722792554344 1 56 56 56 3136
vector 1460 FanetGpsrNormal.grayhole[95].wlan[0].mac packetDropIncorrectlyReceived:vector(packetBytes) ETV
attr interpolationmode none
attr source packetDropReasonIsIncorrectlyReceived(packetDropped)
attr title "packet drop: incorrectly received, vector(packetBytes)"
1460	16338612 33 1690540 1690540 43.722792649727 43.722792649727 1 56 56 56 3136
vector 1461 FanetGpsrNormal.grayhole[28].wlan[0].mac packetDropIncorrectlyReceived:vector(packetBytes) ETV
attr interpolationmode none
attr source packetDropReasonIsIncorrectlyReceived(packetDropped)
attr title "packet drop: incorrectly received, vector(packetBytes)"
1461	16338645 305 1690554 1690554 43.722792675082 43.722792675082 1 56 56 56 3136
1461	17791538 33 1771204 1771204 45.774325600755 45.774325600755 1 56 56 56 3136
vector 1462 FanetGpsrNormal.grayhole[78].wlan[0].mac packetDropIncorrectlyReceived:vector(packetBytes) ETV
attr interpolationmode none
attr source packetDropReasonIsIncorrectlyReceived(packetDropped)
attr title "packet drop: incorrectly received, vector(packetBytes)"
1462	17791571 187 1771217 1771217 45.774325711039 45.774325711039 1 56 56 56 3136
vector 1463 FanetGpsrNormal.host[0].app[0] throughput:vector ETV
attr source throughput(packetReceived)
attr title "throughput, vector"
attr unit bps
1463	17792542 10211 1916672 1916672 0.1 49.448014620677 495 0 0 0 0
