file 2494704 1626022655                                         
version 2
run f1-0-20210402-18:15:50-7564
attr configname f1
attr datetime 20210402-18:15:50
attr experiment f1
attr inifile omnetpp.ini
attr iterationvars ""
attr iterationvarsf ""
attr measurement ""
attr network FanetGpsr
attr processid 7564
attr repetition 0
attr replication #0
attr resultdir results
attr runnumber 0
attr seedset 0
param *.numHosts 50
param *.host[0].numApps 1
param *.host[0].app[0].typename "\"PingApp\""
param *.host[0].app[0].destAddr "\"host[20]\""
param *.host[0].app[0].printPing true
param *.visualizer.*.numDataLinkVisualizers 5
param *.visualizer.*.dataLinkVisualizer[*].activityLevel "\"peer\""
param *.visualizer.*.dataLinkVisualizer[*].displayLinks true
param *.visualizer.*.dataLinkVisualizer[0].packetFilter "\"GPSRBeacon\""
param *.visualizer.*.dataLinkVisualizer[1].packetFilter "\"ping* or UDP*\""
param *.visualizer.*.dataLinkVisualizer[1].*Color "\"blue\""
param **.wlan[*].bitrate 24Mbps
param *.configurator.addStaticRoutes false
param **.netmaskRoutes "\"\""
param **.arp.typename "\"GlobalArp\""
param **.planarizationMode "\"RNG\""
param **.displayBubbles true
param *.host*.wlan[0].typename "\"AckingWirelessInterface\""
param *.host*.wlan[0].radio.transmitter.communicationRange 200m
param *.visualizer.*.networkRouteVisualizer[0].displayRoutes true
param *.visualizer.*.networkRouteVisualizer[0].packetFilter "\"*ping*\""
param **.displayCommunicationRanges true
param *.host[*].mobility.constraintAreaMaxX 1500m
param *.host[*].mobility.constraintAreaMinX 0m
param *.host[*].mobility.constraintAreaMaxY 250m
param *.host[*].mobility.constraintAreaMinY 0m
param *.host[*].mobility.constraintAreaMaxZ 0m
param *.host[*].mobility.constraintAreaMinZ 0m
param *.host*.mobility.typename "\"TurtleMobility\""
param *.host*.mobility.turtleScript "xmldoc(\"config.xml\")"

vector 0 FanetGpsr.host[0].wlan[0].radio radioMode:vector ETV
attr interpolationmode sample-hold
attr source radioModeChanged
attr title "Radio mode, vector"
0	120581 24 0 0 0 0 3 0 4 4 16
vector 1 FanetGpsr.host[1].wlan[0].radio radioMode:vector ETV
attr interpolationmode sample-hold
attr source radioModeChanged
attr title "Radio mode, vector"
1	120605 24 0 0 0 0 3 0 4 4 16
vector 2 FanetGpsr.host[2].wlan[0].radio radioMode:vector ETV
attr interpolationmode sample-hold
attr source radioModeChanged
attr title "Radio mode, vector"
2	120629 24 0 0 0 0 3 0 4 4 16
vector 3 FanetGpsr.host[3].wlan[0].radio radioMode:vector ETV
attr interpolationmode sample-hold
attr source radioModeChanged
attr title "Radio mode, vector"
3	120653 24 0 0 0 0 3 0 4 4 16
vector 4 FanetGpsr.host[4].wlan[0].radio radioMode:vector ETV
attr interpolationmode sample-hold
attr source radioModeChanged
attr title "Radio mode, vector"
4	120677 24 0 0 0 0 3 0 4 4 16
vector 5 FanetGpsr.host[5].wlan[0].radio radioMode:vector ETV
attr interpolationmode sample-hold
attr source radioModeChanged
attr title "Radio mode, vector"
5	120701 24 0 0 0 0 3 0 4 4 16
vector 6 FanetGpsr.host[6].wlan[0].radio radioMode:vector ETV
attr interpolationmode sample-hold
attr source radioModeChanged
attr title "Radio mode, vector"
6	120725 24 0 0 0 0 3 0 4 4 16
vector 7 FanetGpsr.host[7].wlan[0].radio radioMode:vector ETV
attr interpolationmode sample-hold
attr source radioModeChanged
attr title "Radio mode, vector"
7	120749 24 0 0 0 0 3 0 4 4 16
vector 8 FanetGpsr.host[8].wlan[0].radio radioMode:vector ETV
attr interpolationmode sample-hold
attr source radioModeChanged
attr title "Radio mode, vector"
8	120773 24 0 0 0 0 3 0 4 4 16
vector 9 FanetGpsr.host[9].wlan[0].radio radioMode:vector ETV
attr interpolationmode sample-hold
attr source radioModeChanged
attr title "Radio mode, vector"
9	120797 24 0 0 0 0 3 0 4 4 16
vector 10 FanetGpsr.host[10].wlan[0].radio radioMode:vector ETV
attr interpolationmode sample-hold
attr source radioModeChanged
attr title "Radio mode, vector"
10	120821 27 0 0 0 0 3 0 4 4 16
vector 11 FanetGpsr.host[11].wlan[0].radio radioMode:vector ETV
attr interpolationmode sample-hold
attr source radioModeChanged
attr title "Radio mode, vector"
11	120848 27 0 0 0 0 3 0 4 4 16
vector 12 FanetGpsr.host[12].wlan[0].radio radioMode:vector ETV
attr interpolationmode sample-hold
attr source radioModeChanged
attr title "Radio mode, vector"
12	120875 27 0 0 0 0 3 0 4 4 16
vector 13 FanetGpsr.host[13].wlan[0].radio radioMode:vector ETV
attr interpolationmode sample-hold
attr source radioModeChanged
attr title "Radio mode, vector"
13	120902 27 0 0 0 0 3 0 4 4 16
vector 14 FanetGpsr.host[14].wlan[0].radio radioMode:vector ETV
attr interpolationmode sample-hold
attr source radioModeChanged
attr title "Radio mode, vector"
14	120929 27 0 0 0 0 3 0 4 4 16
vector 15 FanetGpsr.host[15].wlan[0].radio radioMode:vector ETV
attr interpolationmode sample-hold
attr source radioModeChanged
attr title "Radio mode, vector"
15	120956 27 0 0 0 0 3 0 4 4 16
vector 16 FanetGpsr.host[16].wlan[0].radio radioMode:vector ETV
attr interpolationmode sample-hold
attr source radioModeChanged
attr title "Radio mode, vector"
16	120983 27 0 0 0 0 3 0 4 4 16
vector 17 FanetGpsr.host[17].wlan[0].radio radioMode:vector ETV
attr interpolationmode sample-hold
attr source radioModeChanged
attr title "Radio mode, vector"
17	121010 27 0 0 0 0 3 0 4 4 16
vector 18 FanetGpsr.host[18].wlan[0].radio radioMode:vector ETV
attr interpolationmode sample-hold
attr source radioModeChanged
attr title "Radio mode, vector"
18	121037 27 0 0 0 0 3 0 4 4 16
vector 19 FanetGpsr.host[19].wlan[0].radio radioMode:vector ETV
attr interpolationmode sample-hold
attr source radioModeChanged
attr title "Radio mode, vector"
19	121064 27 0 0 0 0 3 0 4 4 16
vector 20 FanetGpsr.host[20].wlan[0].radio radioMode:vector ETV
attr interpolationmode sample-hold
attr source radioModeChanged
attr title "Radio mode, vector"
20	121091 27 0 0 0 0 3 0 4 4 16
vector 21 FanetGpsr.host[21].wlan[0].radio radioMode:vector ETV
attr interpolationmode sample-hold
attr source radioModeChanged
attr title "Radio mode, vector"
21	121118 27 0 0 0 0 3 0 4 4 16
vector 22 FanetGpsr.host[22].wlan[0].radio radioMode:vector ETV
attr interpolationmode sample-hold
attr source radioModeChanged
attr title "Radio mode, vector"
22	121145 27 0 0 0 0 3 0 4 4 16
vector 23 FanetGpsr.host[23].wlan[0].radio radioMode:vector ETV
attr interpolationmode sample-hold
attr source radioModeChanged
attr title "Radio mode, vector"
23	121172 27 0 0 0 0 3 0 4 4 16
vector 24 FanetGpsr.host[24].wlan[0].radio radioMode:vector ETV
attr interpolationmode sample-hold
attr source radioModeChanged
attr title "Radio mode, vector"
24	121199 27 0 0 0 0 3 0 4 4 16
vector 25 FanetGpsr.host[25].wlan[0].radio radioMode:vector ETV
attr interpolationmode sample-hold
attr source radioModeChanged
attr title "Radio mode, vector"
25	121226 27 0 0 0 0 3 0 4 4 16
vector 26 FanetGpsr.host[26].wlan[0].radio radioMode:vector ETV
attr interpolationmode sample-hold
attr source radioModeChanged
attr title "Radio mode, vector"
26	121253 27 0 0 0 0 3 0 4 4 16
vector 27 FanetGpsr.host[27].wlan[0].radio radioMode:vector ETV
attr interpolationmode sample-hold
attr source radioModeChanged
attr title "Radio mode, vector"
27	121280 27 0 0 0 0 3 0 4 4 16
vector 28 FanetGpsr.host[28].wlan[0].radio radioMode:vector ETV
attr interpolationmode sample-hold
attr source radioModeChanged
attr title "Radio mode, vector"
28	121307 27 0 0 0 0 3 0 4 4 16
vector 29 FanetGpsr.host[29].wlan[0].radio radioMode:vector ETV
attr interpolationmode sample-hold
attr source radioModeChanged
attr title "Radio mode, vector"
29	121334 27 0 0 0 0 3 0 4 4 16
vector 30 FanetGpsr.host[30].wlan[0].radio radioMode:vector ETV
attr interpolationmode sample-hold
attr source radioModeChanged
attr title "Radio mode, vector"
30	121361 27 0 0 0 0 3 0 4 4 16
vector 31 FanetGpsr.host[31].wlan[0].radio radioMode:vector ETV
attr interpolationmode sample-hold
attr source radioModeChanged
attr title "Radio mode, vector"
31	121388 27 0 0 0 0 3 0 4 4 16
vector 32 FanetGpsr.host[32].wlan[0].radio radioMode:vector ETV
attr interpolationmode sample-hold
attr source radioModeChanged
attr title "Radio mode, vector"
32	121415 27 0 0 0 0 3 0 4 4 16
vector 33 FanetGpsr.host[33].wlan[0].radio radioMode:vector ETV
attr interpolationmode sample-hold
attr source radioModeChanged
attr title "Radio mode, vector"
33	121442 27 0 0 0 0 3 0 4 4 16
vector 34 FanetGpsr.host[34].wlan[0].radio radioMode:vector ETV
attr interpolationmode sample-hold
attr source radioModeChanged
attr title "Radio mode, vector"
34	121469 27 0 0 0 0 3 0 4 4 16
vector 35 FanetGpsr.host[35].wlan[0].radio radioMode:vector ETV
attr interpolationmode sample-hold
attr source radioModeChanged
attr title "Radio mode, vector"
35	121496 27 0 0 0 0 3 0 4 4 16
vector 36 FanetGpsr.host[36].wlan[0].radio radioMode:vector ETV
attr interpolationmode sample-hold
attr source radioModeChanged
attr title "Radio mode, vector"
36	121523 27 0 0 0 0 3 0 4 4 16
vector 37 FanetGpsr.host[37].wlan[0].radio radioMode:vector ETV
attr interpolationmode sample-hold
attr source radioModeChanged
attr title "Radio mode, vector"
37	121550 27 0 0 0 0 3 0 4 4 16
vector 38 FanetGpsr.host[38].wlan[0].radio radioMode:vector ETV
attr interpolationmode sample-hold
attr source radioModeChanged
attr title "Radio mode, vector"
38	121577 27 0 0 0 0 3 0 4 4 16
vector 39 FanetGpsr.host[39].wlan[0].radio radioMode:vector ETV
attr interpolationmode sample-hold
attr source radioModeChanged
attr title "Radio mode, vector"
39	121604 27 0 0 0 0 3 0 4 4 16
vector 40 FanetGpsr.host[40].wlan[0].radio radioMode:vector ETV
attr interpolationmode sample-hold
attr source radioModeChanged
attr title "Radio mode, vector"
40	121631 27 0 0 0 0 3 0 4 4 16
vector 41 FanetGpsr.host[41].wlan[0].radio radioMode:vector ETV
attr interpolationmode sample-hold
attr source radioModeChanged
attr title "Radio mode, vector"
41	121658 27 0 0 0 0 3 0 4 4 16
vector 42 FanetGpsr.host[42].wlan[0].radio radioMode:vector ETV
attr interpolationmode sample-hold
attr source radioModeChanged
attr title "Radio mode, vector"
42	121685 27 0 0 0 0 3 0 4 4 16
vector 43 FanetGpsr.host[43].wlan[0].radio radioMode:vector ETV
attr interpolationmode sample-hold
attr source radioModeChanged
attr title "Radio mode, vector"
43	121712 27 0 0 0 0 3 0 4 4 16
vector 44 FanetGpsr.host[44].wlan[0].radio radioMode:vector ETV
attr interpolationmode sample-hold
attr source radioModeChanged
attr title "Radio mode, vector"
44	121739 27 0 0 0 0 3 0 4 4 16
vector 45 FanetGpsr.host[45].wlan[0].radio radioMode:vector ETV
attr interpolationmode sample-hold
attr source radioModeChanged
attr title "Radio mode, vector"
45	121766 27 0 0 0 0 3 0 4 4 16
vector 46 FanetGpsr.host[46].wlan[0].radio radioMode:vector ETV
attr interpolationmode sample-hold
attr source radioModeChanged
attr title "Radio mode, vector"
46	121793 27 0 0 0 0 3 0 4 4 16
vector 47 FanetGpsr.host[47].wlan[0].radio radioMode:vector ETV
attr interpolationmode sample-hold
attr source radioModeChanged
attr title "Radio mode, vector"
47	121820 27 0 0 0 0 3 0 4 4 16
vector 48 FanetGpsr.host[48].wlan[0].radio radioMode:vector ETV
attr interpolationmode sample-hold
attr source radioModeChanged
attr title "Radio mode, vector"
48	121847 27 0 0 0 0 3 0 4 4 16
vector 49 FanetGpsr.host[49].wlan[0].radio radioMode:vector ETV
attr interpolationmode sample-hold
attr source radioModeChanged
attr title "Radio mode, vector"
49	121874 27 0 0 0 0 3 0 4 4 16
vector 50 FanetGpsr.host[0].wlan[0].radio receptionState:vector ETV
attr interpolationmode sample-hold
attr source receptionStateChanged
attr title "Radio reception state, vector"
50	121901 18176 0 242908 0 106.549326204918 659 1 3 1317 3291
vector 51 FanetGpsr.host[0].wlan[0].radio transmissionState:vector ETV
attr interpolationmode sample-hold
attr source transmissionStateChanged
attr title "Radio transmission state, vector"
51	140077 6139 0 241866 0 106.548864168971 223 1 2 334 556
vector 52 FanetGpsr.host[1].wlan[0].radio receptionState:vector ETV
attr interpolationmode sample-hold
attr source receptionStateChanged
attr title "Radio reception state, vector"
52	146216 13164 0 243797 0 107.305384589805 479 1 3 957 2391
vector 53 FanetGpsr.host[1].wlan[0].radio transmissionState:vector ETV
attr interpolationmode sample-hold
attr source transmissionStateChanged
attr title "Radio transmission state, vector"
53	159380 561 0 226168 0 99.658212599482 21 1 2 31 51
vector 54 FanetGpsr.host[2].wlan[0].radio receptionState:vector ETV
attr interpolationmode sample-hold
attr source receptionStateChanged
attr title "Radio reception state, vector"
54	159941 22844 0 242787 0 106.549274943118 829 1 3 1657 4141
vector 55 FanetGpsr.host[2].wlan[0].radio transmissionState:vector ETV
attr interpolationmode sample-hold
attr source transmissionStateChanged
attr title "Radio transmission state, vector"
55	182785 11258 0 242887 0 106.549325609785 409 1 2 613 1021
vector 56 FanetGpsr.host[3].wlan[0].radio receptionState:vector ETV
attr interpolationmode sample-hold
attr source receptionStateChanged
attr title "Radio reception state, vector"
56	194043 23816 0 242554 0 106.549172297375 867 1 3 1733 4331
vector 57 FanetGpsr.host[3].wlan[0].radio transmissionState:vector ETV
attr interpolationmode sample-hold
attr source transmissionStateChanged
attr title "Radio transmission state, vector"
57	217859 763 0 226941 0 100.385467978798 29 1 2 43 71
vector 58 FanetGpsr.host[4].wlan[0].radio receptionState:vector ETV
attr interpolationmode sample-hold
attr source receptionStateChanged
attr title "Radio reception state, vector"
58	218622 33394 0 242678 0 106.549223676568 1215 1 3 2429 6071
vector 59 FanetGpsr.host[4].wlan[0].radio transmissionState:vector ETV
attr interpolationmode sample-hold
attr source transmissionStateChanged
attr title "Radio transmission state, vector"
59	252016 614 0 234351 0 103.201610241689 23 1 2 34 56
vector 60 FanetGpsr.host[5].wlan[0].radio receptionState:vector ETV
attr interpolationmode sample-hold
attr source receptionStateChanged
attr title "Radio reception state, vector"
60	252630 6400 0 243781 0 107.305384415564 235 1 3 469 1171
vector 61 FanetGpsr.host[5].wlan[0].radio transmissionState:vector ETV
attr interpolationmode sample-hold
attr source transmissionStateChanged
attr title "Radio transmission state, vector"
61	259030 562 0 243138 0 106.798031731181 21 1 2 31 51
vector 62 FanetGpsr.host[6].wlan[0].radio receptionState:vector ETV
attr interpolationmode sample-hold
attr source receptionStateChanged
attr title "Radio reception state, vector"
62	259592 5704 0 243773 0 107.305384267794 209 1 3 417 1041
vector 63 FanetGpsr.host[6].wlan[0].radio transmissionState:vector ETV
attr interpolationmode sample-hold
attr source transmissionStateChanged
attr title "Radio transmission state, vector"
63	265296 666 0 231596 0 102.125583848121 25 1 2 37 61
vector 64 FanetGpsr.host[7].wlan[0].radio receptionState:vector ETV
attr interpolationmode sample-hold
attr source receptionStateChanged
attr title "Radio reception state, vector"
64	265962 17007 0 242906 0 106.549326194091 619 1 3 1237 3091
vector 65 FanetGpsr.host[7].wlan[0].radio transmissionState:vector ETV
attr interpolationmode sample-hold
attr source transmissionStateChanged
attr title "Radio transmission state, vector"
65	282969 618 0 236594 0 103.734428149786 23 1 2 34 56
vector 66 FanetGpsr.host[8].wlan[0].radio receptionState:vector ETV
attr interpolationmode sample-hold
attr source receptionStateChanged
attr title "Radio reception state, vector"
66	283587 29873 0 243304 0 106.83269277409 1089 1 3 2177 5441
vector 67 FanetGpsr.host[8].wlan[0].radio transmissionState:vector ETV
attr interpolationmode sample-hold
attr source transmissionStateChanged
attr title "Radio transmission state, vector"
67	313460 508 0 228565 0 100.811422062711 19 1 2 28 46
vector 68 FanetGpsr.host[9].wlan[0].radio receptionState:vector ETV
attr interpolationmode sample-hold
attr source receptionStateChanged
attr title "Radio reception state, vector"
68	313968 28049 0 242890 0 106.549325806891 1021 1 3 2041 5101
vector 69 FanetGpsr.host[9].wlan[0].radio transmissionState:vector ETV
attr interpolationmode sample-hold
attr source transmissionStateChanged
attr title "Radio transmission state, vector"
69	342017 925 0 236294 0 103.668915855836 35 1 2 52 86
vector 70 FanetGpsr.host[10].wlan[0].radio receptionState:vector ETV
attr interpolationmode sample-hold
attr source receptionStateChanged
attr title "Radio reception state, vector"
70	342942 29649 0 242687 0 106.549223783011 1077 1 3 2153 5381
vector 71 FanetGpsr.host[10].wlan[0].radio transmissionState:vector ETV
attr interpolationmode sample-hold
attr source transmissionStateChanged
attr title "Radio transmission state, vector"
71	372591 818 0 231115 0 101.721336348586 31 1 2 46 76
vector 72 FanetGpsr.host[11].wlan[0].radio receptionState:vector ETV
attr interpolationmode sample-hold
attr source receptionStateChanged
attr title "Radio reception state, vector"
72	373409 11266 0 241885 0 106.548864701473 409 1 3 817 2041
vector 73 FanetGpsr.host[11].wlan[0].radio transmissionState:vector ETV
attr interpolationmode sample-hold
attr source transmissionStateChanged
attr title "Radio transmission state, vector"
73	384675 502 0 240864 0 105.864383003813 19 1 2 28 46
vector 74 FanetGpsr.host[12].wlan[0].radio receptionState:vector ETV
attr interpolationmode sample-hold
attr source receptionStateChanged
attr title "Radio reception state, vector"
74	385177 11457 0 241887 0 106.548864715138 417 1 3 833 2081
vector 75 FanetGpsr.host[12].wlan[0].radio transmissionState:vector ETV
attr interpolationmode sample-hold
attr source transmissionStateChanged
attr title "Radio transmission state, vector"
75	396634 560 0 229485 0 101.545089285959 21 1 2 31 51
vector 76 FanetGpsr.host[13].wlan[0].radio receptionState:vector ETV
attr interpolationmode sample-hold
attr source receptionStateChanged
attr title "Radio reception state, vector"
76	397194 33411 0 243292 0 106.832692662121 1215 1 3 2429 6071
vector 77 FanetGpsr.host[13].wlan[0].radio transmissionState:vector ETV
attr interpolationmode sample-hold
attr source transmissionStateChanged
attr title "Radio transmission state, vector"
77	430605 8856 0 242204 0 106.549018032636 323 1 2 484 806
vector 78 FanetGpsr.host[14].wlan[0].radio receptionState:vector ETV
attr interpolationmode sample-hold
attr source receptionStateChanged
attr title "Radio reception state, vector"
78	439461 6020 0 243151 0 106.798032182167 221 1 3 441 1101
vector 79 FanetGpsr.host[14].wlan[0].radio transmissionState:vector ETV
attr interpolationmode sample-hold
attr source transmissionStateChanged
attr title "Radio transmission state, vector"
79	445481 779 0 243772 0 107.305383964578 29 1 2 43 71
vector 80 FanetGpsr.host[15].wlan[0].radio receptionState:vector ETV
attr interpolationmode sample-hold
attr source receptionStateChanged
attr title "Radio reception state, vector"
80	446260 5431 0 243793 0 107.30538453196 199 1 3 397 991
vector 81 FanetGpsr.host[15].wlan[0].radio transmissionState:vector ETV
attr interpolationmode sample-hold
attr source transmissionStateChanged
attr title "Radio transmission state, vector"
81	451691 719 0 228413 0 100.754430071124 27 1 2 40 66
vector 82 FanetGpsr.host[16].wlan[0].radio receptionState:vector ETV
attr interpolationmode sample-hold
attr source receptionStateChanged
attr title "Radio reception state, vector"
82	452410 23397 0 242562 0 106.549172374449 851 1 3 1701 4251
vector 83 FanetGpsr.host[16].wlan[0].radio transmissionState:vector ETV
attr interpolationmode sample-hold
attr source transmissionStateChanged
attr title "Radio transmission state, vector"
83	475807 672 0 233566 0 102.76984388069 25 1 2 37 61
vector 84 FanetGpsr.host[17].wlan[0].radio receptionState:vector ETV
attr interpolationmode sample-hold
attr source receptionStateChanged
attr title "Radio reception state, vector"
84	476479 24899 0 242552 0 106.549172233499 907 1 3 1813 4531
vector 85 FanetGpsr.host[17].wlan[0].radio transmissionState:vector ETV
attr interpolationmode sample-hold
attr source transmissionStateChanged
attr title "Radio transmission state, vector"
85	501378 8965 0 242320 0 106.549069365443 327 1 2 490 816
vector 86 FanetGpsr.host[18].wlan[0].radio receptionState:vector ETV
attr interpolationmode sample-hold
attr source receptionStateChanged
attr title "Radio reception state, vector"
86	510343 2575 0 240462 0 105.57713472916 95 1 3 189 471
vector 87 FanetGpsr.host[18].wlan[0].radio transmissionState:vector ETV
attr interpolationmode sample-hold
attr source transmissionStateChanged
attr title "Radio transmission state, vector"
87	512918 664 0 238477 0 104.674613699921 25 1 2 37 61
vector 88 FanetGpsr.host[19].wlan[0].radio receptionState:vector ETV
attr interpolationmode sample-hold
attr source receptionStateChanged
attr title "Radio reception state, vector"
88	513582 22306 0 242892 0 106.549325845044 809 1 3 1617 4041
vector 89 FanetGpsr.host[19].wlan[0].radio transmissionState:vector ETV
attr interpolationmode sample-hold
attr source transmissionStateChanged
attr title "Radio transmission state, vector"
89	535888 821 0 229127 0 101.364279972059 31 1 2 46 76
vector 90 FanetGpsr.host[20].wlan[0].radio receptionState:vector ETV
attr interpolationmode sample-hold
attr source receptionStateChanged
attr title "Radio reception state, vector"
90	536709 15062 0 242577 0 106.549172565816 547 1 3 1093 2731
vector 91 FanetGpsr.host[20].wlan[0].radio transmissionState:vector ETV
attr interpolationmode sample-hold
attr source transmissionStateChanged
attr title "Radio transmission state, vector"
91	551771 5829 0 242438 0 106.549120611961 211 1 2 316 526
vector 92 FanetGpsr.host[21].wlan[0].radio receptionState:vector ETV
attr interpolationmode sample-hold
attr source receptionStateChanged
attr title "Radio reception state, vector"
92	557600 29639 0 243316 0 106.832693019194 1078 1 3 2155 5383
vector 93 FanetGpsr.host[21].wlan[0].radio transmissionState:vector ETV
attr interpolationmode sample-hold
attr source transmissionStateChanged
attr title "Radio transmission state, vector"
93	587239 760 0 212548 0 93.927179461485 29 1 2 43 71
vector 94 FanetGpsr.host[22].wlan[0].radio receptionState:vector ETV
attr interpolationmode sample-hold
attr source receptionStateChanged
attr title "Radio reception state, vector"
94	587999 30932 0 242680 0 106.549223680971 1127 1 3 2253 5631
vector 95 FanetGpsr.host[22].wlan[0].radio transmissionState:vector ETV
attr interpolationmode sample-hold
attr source transmissionStateChanged
attr title "Radio transmission state, vector"
95	618931 3092 0 242547 0 106.549171922222 111 1 2 166 276
vector 96 FanetGpsr.host[23].wlan[0].radio receptionState:vector ETV
attr interpolationmode sample-hold
attr source receptionStateChanged
attr title "Radio reception state, vector"
96	622023 29222 0 243288 0 106.832692629119 1063 1 3 2125 5311
vector 97 FanetGpsr.host[23].wlan[0].radio transmissionState:vector ETV
attr interpolationmode sample-hold
attr source transmissionStateChanged
attr title "Radio transmission state, vector"
97	651245 3155 0 242663 0 106.54922313493 115 1 2 172 286
vector 98 FanetGpsr.host[24].wlan[0].radio receptionState:vector ETV
attr interpolationmode sample-hold
attr source receptionStateChanged
attr title "Radio reception state, vector"
98	654400 3354 0 243167 0 106.798032314753 123 1 3 245 611
vector 99 FanetGpsr.host[24].wlan[0].radio transmissionState:vector ETV
attr interpolationmode sample-hold
attr source transmissionStateChanged
attr title "Radio transmission state, vector"
99	657754 722 0 243422 0 106.843449639295 27 1 2 40 66
vector 100 FanetGpsr.host[25].wlan[0].radio receptionState:vector ETV
attr interpolationmode sample-hold
attr source receptionStateChanged
attr title "Radio reception state, vector"
100	658476 28480 0 242783 0 106.549274731573 999 1 3 1997 4991
vector 101 FanetGpsr.host[25].wlan[0].radio transmissionState:vector ETV
attr interpolationmode sample-hold
attr source transmissionStateChanged
attr title "Radio transmission state, vector"
101	686956 845 0 243283 0 106.832692369957 31 1 2 46 76
vector 102 FanetGpsr.host[26].wlan[0].radio receptionState:vector ETV
attr interpolationmode sample-hold
attr source receptionStateChanged
attr title "Radio reception state, vector"
102	687801 28065 0 243284 0 106.832692517988 983 1 3 1965 4911
vector 103 FanetGpsr.host[26].wlan[0].radio transmissionState:vector ETV
attr interpolationmode sample-hold
attr source transmissionStateChanged
attr title "Radio transmission state, vector"
103	715866 1016 0 229281 0 101.398244833711 37 1 2 55 91
vector 104 FanetGpsr.host[27].wlan[0].radio receptionState:vector ETV
attr interpolationmode sample-hold
attr source receptionStateChanged
attr title "Radio reception state, vector"
104	716882 3521 0 240470 0 105.57713484024 125 1 3 249 621
vector 105 FanetGpsr.host[27].wlan[0].radio transmissionState:vector ETV
attr interpolationmode sample-hold
attr source transmissionStateChanged
attr title "Radio transmission state, vector"
105	720403 579 0 231882 0 102.442890592523 21 1 2 31 51
vector 106 FanetGpsr.host[28].wlan[0].radio receptionState:vector ETV
attr interpolationmode sample-hold
attr source receptionStateChanged
attr title "Radio reception state, vector"
106	720982 18595 0 242900 0 106.54932603286 653 1 3 1305 3261
vector 107 FanetGpsr.host[28].wlan[0].radio transmissionState:vector ETV
attr interpolationmode sample-hold
attr source transmissionStateChanged
attr title "Radio transmission state, vector"
107	739577 527 0 241455 0 106.267881037806 19 1 2 28 46
vector 108 FanetGpsr.host[29].wlan[0].radio receptionState:vector ETV
attr interpolationmode sample-hold
attr source receptionStateChanged
attr title "Radio reception state, vector"
108	740104 30450 0 243320 0 106.832693023704 1067 1 3 2133 5331
vector 109 FanetGpsr.host[29].wlan[0].radio transmissionState:vector ETV
attr interpolationmode sample-hold
attr source transmissionStateChanged
attr title "Radio transmission state, vector"
109	770554 522 0 222474 0 98.212579801353 19 1 2 28 46
vector 110 FanetGpsr.host[30].wlan[0].radio receptionState:vector ETV
attr interpolationmode sample-hold
attr source receptionStateChanged
attr title "Radio reception state, vector"
110	771076 26808 0 242898 0 106.549326020607 945 1 3 1889 4721
vector 111 FanetGpsr.host[30].wlan[0].radio transmissionState:vector ETV
attr interpolationmode sample-hold
attr source transmissionStateChanged
attr title "Radio transmission state, vector"
111	797884 584 0 233910 0 102.908557542274 21 1 2 31 51
vector 112 FanetGpsr.host[31].wlan[0].radio receptionState:vector ETV
attr interpolationmode sample-hold
attr source receptionStateChanged
attr title "Radio reception state, vector"
112	798468 4199 0 243801 0 107.305384597084 149 1 3 297 741
vector 113 FanetGpsr.host[31].wlan[0].radio transmissionState:vector ETV
attr interpolationmode sample-hold
attr source transmissionStateChanged
attr title "Radio transmission state, vector"
113	802667 691 0 238791 0 104.803639758051 25 1 2 37 61
vector 114 FanetGpsr.host[32].wlan[0].radio receptionState:vector ETV
attr interpolationmode sample-hold
attr source receptionStateChanged
attr title "Radio reception state, vector"
114	803358 25150 0 242896 0 106.549325930252 887 1 3 1773 4431
vector 115 FanetGpsr.host[32].wlan[0].radio transmissionState:vector ETV
attr interpolationmode sample-hold
attr source transmissionStateChanged
attr title "Radio transmission state, vector"
115	828508 583 0 233392 0 102.704779464424 21 1 2 31 51
vector 116 FanetGpsr.host[33].wlan[0].radio receptionState:vector ETV
attr interpolationmode sample-hold
attr source receptionStateChanged
attr title "Radio reception state, vector"
116	829091 2046 0 243427 0 106.843450116738 73 1 3 145 361
vector 117 FanetGpsr.host[33].wlan[0].radio transmissionState:vector ETV
attr interpolationmode sample-hold
attr source transmissionStateChanged
attr title "Radio transmission state, vector"
117	831137 751 0 233211 0 102.565952824101 27 1 2 40 66
vector 118 FanetGpsr.host[34].wlan[0].radio receptionState:vector ETV
attr interpolationmode sample-hold
attr source receptionStateChanged
attr title "Radio reception state, vector"
118	831888 27313 0 242568 0 106.5491724316 963 1 3 1925 4811
vector 119 FanetGpsr.host[34].wlan[0].radio transmissionState:vector ETV
attr interpolationmode sample-hold
attr source transmissionStateChanged
attr title "Radio transmission state, vector"
119	859201 686 0 226624 0 100.01916091251 25 1 2 37 61
vector 120 FanetGpsr.host[35].wlan[0].radio receptionState:vector ETV
attr interpolationmode sample-hold
attr source receptionStateChanged
attr title "Radio reception state, vector"
120	859887 1672 0 241468 0 106.267881451311 59 1 3 117 291
vector 121 FanetGpsr.host[35].wlan[0].radio transmissionState:vector ETV
attr interpolationmode sample-hold
attr source transmissionStateChanged
attr title "Radio transmission state, vector"
121	861559 578 0 241024 0 105.913977621263 21 1 2 31 51
vector 122 FanetGpsr.host[36].wlan[0].radio receptionState:vector ETV
attr interpolationmode sample-hold
attr source receptionStateChanged
attr title "Radio reception state, vector"
122	862137 21418 0 242566 0 106.54917241689 751 1 3 1501 3751
vector 123 FanetGpsr.host[36].wlan[0].radio transmissionState:vector ETV
attr interpolationmode sample-hold
attr source transmissionStateChanged
attr title "Radio transmission state, vector"
123	883555 858 0 230802 0 101.616809811115 31 1 2 46 76
vector 124 FanetGpsr.host[37].wlan[0].radio receptionState:vector ETV
attr interpolationmode sample-hold
attr source receptionStateChanged
attr title "Radio reception state, vector"
124	884413 29579 0 243300 0 106.832692726971 1039 1 3 2077 5191
vector 125 FanetGpsr.host[37].wlan[0].radio transmissionState:vector ETV
attr interpolationmode sample-hold
attr source transmissionStateChanged
attr title "Radio transmission state, vector"
125	913992 10611 0 242776 0 106.549274374559 371 1 2 556 926
vector 126 FanetGpsr.host[38].wlan[0].radio receptionState:vector ETV
attr interpolationmode sample-hold
attr source receptionStateChanged
attr title "Radio reception state, vector"
126	924603 24038 0 243308 0 106.83269290928 845 1 3 1689 4221
vector 127 FanetGpsr.host[38].wlan[0].radio transmissionState:vector ETV
attr interpolationmode sample-hold
attr source transmissionStateChanged
attr title "Radio transmission state, vector"
127	948641 523 0 222742 0 98.465631276507 19 1 2 28 46
vector 128 FanetGpsr.host[39].wlan[0].radio receptionState:vector ETV
attr interpolationmode sample-hold
attr source receptionStateChanged
attr title "Radio reception state, vector"
128	949164 28787 0 243296 0 106.832692689802 1011 1 3 2021 5051
vector 129 FanetGpsr.host[39].wlan[0].radio transmissionState:vector ETV
attr interpolationmode sample-hold
attr source transmissionStateChanged
attr title "Radio transmission state, vector"
129	977951 1662 0 242094 0 106.548966760477 59 1 2 88 146
vector 130 FanetGpsr.host[40].wlan[0].radio receptionState:vector ETV
attr interpolationmode sample-hold
attr source receptionStateChanged
attr title "Radio reception state, vector"
130	979613 24284 0 242888 0 106.549325778491 853 1 3 1705 4261
vector 131 FanetGpsr.host[40].wlan[0].radio transmissionState:vector ETV
attr interpolationmode sample-hold
attr source transmissionStateChanged
attr title "Radio transmission state, vector"
131	1003897 638 0 234934 0 103.525409205489 23 1 2 34 56
vector 132 FanetGpsr.host[41].wlan[0].radio receptionState:vector ETV
attr interpolationmode sample-hold
attr source receptionStateChanged
attr title "Radio reception state, vector"
132	1004535 13631 0 241867 0 106.548864279259 479 1 3 957 2391
vector 133 FanetGpsr.host[41].wlan[0].radio transmissionState:vector ETV
attr interpolationmode sample-hold
attr source transmissionStateChanged
attr title "Radio transmission state, vector"
133	1018166 580 0 231272 0 101.755363529686 21 1 2 31 51
vector 134 FanetGpsr.host[42].wlan[0].radio receptionState:vector ETV
attr interpolationmode sample-hold
attr source receptionStateChanged
attr title "Radio reception state, vector"
134	1018746 24768 0 242902 0 106.549326167933 867 1 3 1733 4331
vector 135 FanetGpsr.host[42].wlan[0].radio transmissionState:vector ETV
attr interpolationmode sample-hold
attr source transmissionStateChanged
attr title "Radio transmission state, vector"
135	1043514 639 0 234076 0 102.937004063883 23 1 2 34 56
vector 136 FanetGpsr.host[43].wlan[0].radio receptionState:vector ETV
attr interpolationmode sample-hold
attr source receptionStateChanged
attr title "Radio reception state, vector"
136	1044153 6145 0 243777 0 107.305384281532 217 1 3 433 1081
vector 137 FanetGpsr.host[43].wlan[0].radio transmissionState:vector ETV
attr interpolationmode sample-hold
attr source transmissionStateChanged
attr title "Radio transmission state, vector"
137	1050298 745 0 241714 0 106.511804466739 27 1 2 40 66
vector 138 FanetGpsr.host[44].wlan[0].radio receptionState:vector ETV
attr interpolationmode sample-hold
attr source receptionStateChanged
attr title "Radio reception state, vector"
138	1051043 24514 0 242564 0 106.54917238148 863 1 3 1725 4311
vector 139 FanetGpsr.host[44].wlan[0].radio transmissionState:vector ETV
attr interpolationmode sample-hold
attr source transmissionStateChanged
attr title "Radio transmission state, vector"
139	1075557 844 0 241302 0 106.236266338406 31 1 2 46 76
vector 140 FanetGpsr.host[45].wlan[0].radio receptionState:vector ETV
attr interpolationmode sample-hold
attr source receptionStateChanged
attr title "Radio reception state, vector"
140	1076401 31492 0 243312 0 106.832693001075 1107 1 3 2213 5531
vector 141 FanetGpsr.host[45].wlan[0].radio transmissionState:vector ETV
attr interpolationmode sample-hold
attr source transmissionStateChanged
attr title "Radio transmission state, vector"
141	1107893 847 0 234574 0 103.348760107204 31 1 2 46 76
vector 142 FanetGpsr.host[46].wlan[0].radio receptionState:vector ETV
attr interpolationmode sample-hold
attr source receptionStateChanged
attr title "Radio reception state, vector"
142	1108740 12377 0 243789 0 107.305384527599 435 1 3 869 2171
vector 143 FanetGpsr.host[46].wlan[0].radio transmissionState:vector ETV
attr interpolationmode sample-hold
attr source transmissionStateChanged
attr title "Radio transmission state, vector"
143	1121117 858 0 230944 0 101.650336657788 31 1 2 46 76
vector 144 FanetGpsr.host[47].wlan[0].radio receptionState:vector ETV
attr interpolationmode sample-hold
attr source receptionStateChanged
attr title "Radio reception state, vector"
144	1121975 11786 0 243163 0 106.798032304268 415 1 3 829 2071
vector 145 FanetGpsr.host[47].wlan[0].radio transmissionState:vector ETV
attr interpolationmode sample-hold
attr source transmissionStateChanged
attr title "Radio transmission state, vector"
145	1133761 807 0 236435 0 103.67380480808 29 1 2 43 71
vector 146 FanetGpsr.host[48].wlan[0].radio receptionState:vector ETV
attr interpolationmode sample-hold
attr source receptionStateChanged
attr title "Radio reception state, vector"
146	1134568 5968 0 243805 0 107.305384630174 211 1 3 421 1051
vector 147 FanetGpsr.host[48].wlan[0].radio transmissionState:vector ETV
attr interpolationmode sample-hold
attr source transmissionStateChanged
attr title "Radio transmission state, vector"
147	1140536 743 0 224409 0 98.953539571398 27 1 2 40 66
vector 148 FanetGpsr.host[49].wlan[0].radio receptionState:vector ETV
attr interpolationmode sample-hold
attr source receptionStateChanged
attr title "Radio reception state, vector"
148	1141279 6191 0 243785 0 107.305384434404 219 1 3 437 1091
vector 149 FanetGpsr.host[49].wlan[0].radio transmissionState:vector ETV
attr interpolationmode sample-hold
attr source transmissionStateChanged
attr title "Radio transmission state, vector"
149	1147470 690 0 240453 0 105.577134376531 25 1 2 37 61
vector 150 FanetGpsr.host[0].app[0] pingTxSeq:vector ETV
attr interpolationmode none
attr title "ping tx seq, vector"
150	1148160 3147 266 241813 0.548813502304 106.548813502304 107 0 106 5671 402641
vector 151 FanetGpsr.host[15].wlan[0].mac rcvdPkFromHl:vector(packetBytes) ETV
attr interpolationmode none
attr source packetReceivedFromUpper
attr title "packets received from higher layer, vector(packetBytes)"
151	1151307 385 2644 228362 5.256627134513 100.754407404457 13 40 124 772 62128
vector 152 FanetGpsr.host[15].wlan[0].mac.queue packetPushed:vector(packetBytes) ETV
attr interpolationmode none
attr title "packet pushed, vector(packetBytes)"
152	1151692 385 2644 228362 5.256627134513 100.754407404457 13 40 124 772 62128
vector 153 FanetGpsr.host[15].wlan[0].mac.queue queueLength:vector ETV
attr interpolationmode sample-hold
attr source "count(packetPushed) - count(packetPopped) - count(packetRemoved) - count(packetDropped)"
attr title "queue length, vector"
153	1152077 738 2644 228362 5.256627134513 100.754407404457 26 0 1 13 13
vector 154 FanetGpsr.host[15].wlan[0].mac.queue packetPopped:vector(packetBytes) ETV
attr interpolationmode none
attr title "packet popped, vector(packetBytes)"
154	1152815 385 2644 228362 5.256627134513 100.754407404457 13 40 124 772 62128
vector 155 FanetGpsr.host[15].wlan[0].mac.queue queueingTime:vector ETV
attr interpolationmode none
attr source queueingTime(packetPopped)
attr title "queueing times, vector"
attr unit s
155	1153200 369 2644 228362 5.256627134513 100.754407404457 13 0 0 0 0
vector 156 FanetGpsr.host[15].wlan[0].mac sentDownPk:vector(packetBytes) ETV
attr interpolationmode none
attr source packetSentToLower
attr title "packets sent to lower layer, vector(packetBytes)"
156	1153569 385 2644 228362 5.256627134513 100.754407404457 13 56 140 980 90160
vector 157 FanetGpsr.host[5].wlan[0].mac rcvdPkFromLl:vector(packetBytes) ETV
attr interpolationmode none
attr source packetReceivedFromLower
attr title "packets received from lower layer, vector(packetBytes)"
157	1153954 3456 2697 243782 5.256650106386 107.305384415564 117 56 152 8388 733680
vector 158 FanetGpsr.host[5].wlan[0].mac passedUpPk:vector(packetBytes) ETV
attr interpolationmode none
attr source packetSentToUpper
attr title "packets passed to higher layer, vector(packetBytes)"
158	1157410 2827 2697 243782 5.256650106386 107.305384415564 96 40 40 3840 153600
vector 159 FanetGpsr.host[24].wlan[0].mac rcvdPkFromLl:vector(packetBytes) ETV
attr interpolationmode none
attr source packetReceivedFromLower
attr title "packets received from lower layer, vector(packetBytes)"
159	1160237 1804 2701 243168 5.256650137664 106.798032314753 61 56 152 4112 330016
vector 160 FanetGpsr.host[24].wlan[0].mac passedUpPk:vector(packetBytes) ETV
attr interpolationmode none
attr source packetSentToUpper
attr title "packets passed to higher layer, vector(packetBytes)"
160	1162041 1654 2701 243168 5.256650137664 106.798032314753 56 40 124 2492 130928
vector 161 FanetGpsr.host[49].wlan[0].mac rcvdPkFromLl:vector(packetBytes) ETV
attr interpolationmode none
attr source packetReceivedFromLower
attr title "packets received from lower layer, vector(packetBytes)"
161	1163695 3213 2705 243786 5.25665014965 107.305384434404 109 56 152 7412 602800
vector 162 FanetGpsr.host[49].wlan[0].mac passedUpPk:vector(packetBytes) ETV
attr interpolationmode none
attr source packetSentToUpper
attr title "packets passed to higher layer, vector(packetBytes)"
162	1166908 2797 2705 243786 5.25665014965 107.305384434404 95 40 124 3884 165776
vector 163 FanetGpsr.host[48].wlan[0].mac rcvdPkFromLl:vector(packetBytes) ETV
attr interpolationmode none
attr source packetReceivedFromLower
attr title "packets received from lower layer, vector(packetBytes)"
163	1169705 3096 2709 243806 5.256650203422 107.305384630174 105 56 152 7080 566784
vector 164 FanetGpsr.host[48].wlan[0].mac passedUpPk:vector(packetBytes) ETV
attr interpolationmode none
attr source packetSentToUpper
attr title "packets passed to higher layer, vector(packetBytes)"
164	1172801 2737 2709 243806 5.256650203422 107.305384630174 93 40 124 3888 176352
vector 165 FanetGpsr.host[6].wlan[0].mac rcvdPkFromLl:vector(packetBytes) ETV
attr interpolationmode none
attr source packetReceivedFromLower
attr title "packets received from lower layer, vector(packetBytes)"
165	1175538 3068 2713 243774 5.256650238373 107.305384267794 104 56 152 7048 570656
vector 166 FanetGpsr.host[6].wlan[0].mac passedUpPk:vector(packetBytes) ETV
attr interpolationmode none
attr source packetSentToUpper
attr title "packets passed to higher layer, vector(packetBytes)"
166	1178606 2710 2713 243774 5.256650238373 107.305384267794 92 40 124 3848 174752
vector 167 FanetGpsr.host[14].wlan[0].mac rcvdPkFromLl:vector(packetBytes) ETV
attr interpolationmode none
attr source packetReceivedFromLower
attr title "packets received from lower layer, vector(packetBytes)"
167	1181316 3243 2717 243152 5.256650326249 106.798032182167 110 56 152 7468 605936
vector 168 FanetGpsr.host[14].wlan[0].mac passedUpPk:vector(packetBytes) ETV
attr interpolationmode none
attr source packetSentToUpper
attr title "packets passed to higher layer, vector(packetBytes)"
168	1184559 2855 2717 243152 5.256650326249 106.798032182167 97 40 136 4072 188992
vector 169 FanetGpsr.host[43].wlan[0].mac rcvdPkFromLl:vector(packetBytes) ETV
attr interpolationmode none
attr source packetReceivedFromLower
attr title "packets received from lower layer, vector(packetBytes)"
169	1187414 3191 2721 243778 5.256650356106 107.305384281532 108 56 152 7272 583200
vector 170 FanetGpsr.host[43].wlan[0].mac passedUpPk:vector(packetBytes) ETV
attr interpolationmode none
attr source packetSentToUpper
attr title "packets passed to higher layer, vector(packetBytes)"
170	1190605 2832 2721 243778 5.256650356106 107.305384281532 96 40 124 4008 181152
vector 171 FanetGpsr.host[31].wlan[0].mac rcvdPkFromLl:vector(packetBytes) ETV
attr interpolationmode none
attr source packetReceivedFromLower
attr title "packets received from lower layer, vector(packetBytes)"
171	1193437 2179 2725 243802 5.256650369487 107.305384597084 74 56 152 5032 410720
vector 172 FanetGpsr.host[31].wlan[0].mac passedUpPk:vector(packetBytes) ETV
attr interpolationmode none
attr source packetSentToUpper
attr title "packets passed to higher layer, vector(packetBytes)"
172	1195616 1911 2725 243802 5.256650369487 107.305384597084 65 40 124 2684 117776
vector 173 FanetGpsr.host[31].wlan[0].mac rcvdPkFromHl:vector(packetBytes) ETV
attr interpolationmode none
attr source packetReceivedFromUpper
attr title "packets received from higher layer, vector(packetBytes)"
173	1197527 355 3232 238740 6.175318574533 104.803617091384 12 40 124 564 32976
vector 174 FanetGpsr.host[31].wlan[0].mac.queue packetPushed:vector(packetBytes) ETV
attr interpolationmode none
attr title "packet pushed, vector(packetBytes)"
174	1197882 355 3232 238740 6.175318574533 104.803617091384 12 40 124 564 32976
vector 175 FanetGpsr.host[31].wlan[0].mac.queue queueLength:vector ETV
attr interpolationmode sample-hold
attr source "count(packetPushed) - count(packetPopped) - count(packetRemoved) - count(packetDropped)"
attr title "queue length, vector"
175	1198237 684 3232 238740 6.175318574533 104.803617091384 24 0 1 12 12
vector 176 FanetGpsr.host[31].wlan[0].mac.queue packetPopped:vector(packetBytes) ETV
attr interpolationmode none
attr title "packet popped, vector(packetBytes)"
176	1198921 355 3232 238740 6.175318574533 104.803617091384 12 40 124 564 32976
vector 177 FanetGpsr.host[31].wlan[0].mac.queue queueingTime:vector ETV
attr interpolationmode none
attr source queueingTime(packetPopped)
attr title "queueing times, vector"
attr unit s
177	1199276 342 3232 238740 6.175318574533 104.803617091384 12 0 0 0 0
vector 178 FanetGpsr.host[31].wlan[0].mac sentDownPk:vector(packetBytes) ETV
attr interpolationmode none
attr source packetSentToLower
attr title "packets sent to lower layer, vector(packetBytes)"
178	1199618 355 3232 238740 6.175318574533 104.803617091384 12 56 140 756 54096
vector 179 FanetGpsr.host[18].wlan[0].mac rcvdPkFromLl:vector(packetBytes) ETV
attr interpolationmode none
attr source packetReceivedFromLower
attr title "packets received from lower layer, vector(packetBytes)"
179	1199973 1384 3285 240463 6.175341349543 105.57713472916 47 56 152 3076 236720
vector 180 FanetGpsr.host[18].wlan[0].mac passedUpPk:vector(packetBytes) ETV
attr interpolationmode none
attr source packetSentToUpper
attr title "packets passed to higher layer, vector(packetBytes)"
180	1201357 1264 3285 240463 6.175341349543 105.57713472916 43 40 124 1804 82576
vector 181 FanetGpsr.host[27].wlan[0].mac rcvdPkFromLl:vector(packetBytes) ETV
attr interpolationmode none
attr source packetReceivedFromLower
attr title "packets received from lower layer, vector(packetBytes)"
181	1202621 1831 3297 240471 6.175341512283 105.57713484024 62 56 152 4084 316688
vector 182 FanetGpsr.host[27].wlan[0].mac passedUpPk:vector(packetBytes) ETV
attr interpolationmode none
attr source packetSentToUpper
attr title "packets passed to higher layer, vector(packetBytes)"
182	1204452 1651 3297 240471 6.175341512283 105.57713484024 56 40 124 2324 103376
vector 183 FanetGpsr.host[15].wlan[0].mac rcvdPkFromLl:vector(packetBytes) ETV
attr interpolationmode none
attr source packetReceivedFromLower
attr title "packets received from lower layer, vector(packetBytes)"
183	1206103 2918 3301 243794 6.175341809507 107.30538453196 99 56 152 6684 538512
vector 184 FanetGpsr.host[15].wlan[0].mac passedUpPk:vector(packetBytes) ETV
attr interpolationmode none
attr source packetSentToUpper
attr title "packets passed to higher layer, vector(packetBytes)"
184	1209021 2618 3301 243794 6.175341809507 107.30538453196 89 40 124 3812 183728
vector 185 FanetGpsr.host[48].wlan[0].mac rcvdPkFromHl:vector(packetBytes) ETV
attr interpolationmode none
attr source packetReceivedFromUpper
attr title "packets received from higher layer, vector(packetBytes)"
185	1211639 382 3387 224358 6.248330608942 98.953516904731 13 40 136 712 54592
vector 186 FanetGpsr.host[48].wlan[0].mac.queue packetPushed:vector(packetBytes) ETV
attr interpolationmode none
attr title "packet pushed, vector(packetBytes)"
186	1212021 382 3387 224358 6.248330608942 98.953516904731 13 40 136 712 54592
vector 187 FanetGpsr.host[48].wlan[0].mac.queue queueLength:vector ETV
attr interpolationmode sample-hold
attr source "count(packetPushed) - count(packetPopped) - count(packetRemoved) - count(packetDropped)"
attr title "queue length, vector"
187	1212403 734 3387 224358 6.248330608942 98.953516904731 26 0 1 13 13
vector 188 FanetGpsr.host[48].wlan[0].mac.queue packetPopped:vector(packetBytes) ETV
attr interpolationmode none
attr title "packet popped, vector(packetBytes)"
188	1213137 382 3387 224358 6.248330608942 98.953516904731 13 40 136 712 54592
vector 189 FanetGpsr.host[48].wlan[0].mac.queue queueingTime:vector ETV
attr interpolationmode none
attr source queueingTime(packetPopped)
attr title "queueing times, vector"
attr unit s
189	1213519 367 3387 224358 6.248330608942 98.953516904731 13 0 0 0 0
vector 190 FanetGpsr.host[48].wlan[0].mac sentDownPk:vector(packetBytes) ETV
attr interpolationmode none
attr source packetSentToLower
attr title "packets sent to lower layer, vector(packetBytes)"
190	1213886 382 3387 224358 6.248330608942 98.953516904731 13 56 152 920 80704
vector 191 FanetGpsr.host[33].wlan[0].mac rcvdPkFromLl:vector(packetBytes) ETV
attr interpolationmode none
attr source packetReceivedFromLower
attr title "packets received from lower layer, vector(packetBytes)"
191	1214268 1058 3464 243428 6.248353885955 106.843450116738 36 56 152 2544 218688
vector 192 FanetGpsr.host[33].wlan[0].mac passedUpPk:vector(packetBytes) ETV
attr interpolationmode none
attr source packetSentToUpper
attr title "packets passed to higher layer, vector(packetBytes)"
192	1215326 940 3464 243428 6.248353885955 106.843450116738 32 40 124 1448 78752
vector 193 FanetGpsr.host[35].wlan[0].mac rcvdPkFromHl:vector(packetBytes) ETV
attr interpolationmode none
attr source packetReceivedFromUpper
attr title "packets received from higher layer, vector(packetBytes)"
193	1216266 294 3557 240973 6.320681096986 105.913954954596 10 40 40 400 16000
vector 194 FanetGpsr.host[35].wlan[0].mac.queue packetPushed:vector(packetBytes) ETV
attr interpolationmode none
attr title "packet pushed, vector(packetBytes)"
194	1216560 294 3557 240973 6.320681096986 105.913954954596 10 40 40 400 16000
vector 195 FanetGpsr.host[35].wlan[0].mac.queue queueLength:vector ETV
attr interpolationmode sample-hold
attr source "count(packetPushed) - count(packetPopped) - count(packetRemoved) - count(packetDropped)"
attr title "queue length, vector"
195	1216854 568 3557 240973 6.320681096986 105.913954954596 20 0 1 10 10
vector 196 FanetGpsr.host[35].wlan[0].mac.queue packetPopped:vector(packetBytes) ETV
attr interpolationmode none
attr title "packet popped, vector(packetBytes)"
196	1217422 294 3557 240973 6.320681096986 105.913954954596 10 40 40 400 16000
vector 197 FanetGpsr.host[35].wlan[0].mac.queue queueingTime:vector ETV
attr interpolationmode none
attr source queueingTime(packetPopped)
attr title "queueing times, vector"
attr unit s
197	1217716 284 3557 240973 6.320681096986 105.913954954596 10 0 0 0 0
vector 198 FanetGpsr.host[35].wlan[0].mac sentDownPk:vector(packetBytes) ETV
attr interpolationmode none
attr source packetSentToLower
attr title "packets sent to lower layer, vector(packetBytes)"
198	1218000 294 3557 240973 6.320681096986 105.913954954596 10 56 56 560 31360
vector 199 FanetGpsr.host[7].wlan[0].mac rcvdPkFromLl:vector(packetBytes) ETV
attr interpolationmode none
attr source packetReceivedFromLower
attr title "packets received from lower layer, vector(packetBytes)"
199	1218294 9329 3610 242907 6.320704036195 106.549326194091 309 56 140 34104 4261824
vector 200 FanetGpsr.host[7].wlan[0].mac passedUpPk:vector(packetBytes) ETV
attr interpolationmode none
attr source packetSentToUpper
attr title "packets passed to higher layer, vector(packetBytes)"
200	1227623 3215 3610 241457 6.320704036195 106.267881228961 109 40 40 4360 174400
vector 201 FanetGpsr.host[38].wlan[0].mac rcvdPkFromLl:vector(packetBytes) ETV
attr interpolationmode none
attr source packetReceivedFromLower
attr title "packets received from lower layer, vector(packetBytes)"
201	1230838 12759 3614 243309 6.320704125772 106.83269290928 422 56 140 52360 6954080
vector 202 FanetGpsr.host[38].wlan[0].mac passedUpPk:vector(packetBytes) ETV
attr interpolationmode none
attr source packetSentToUpper
attr title "packets passed to higher layer, vector(packetBytes)"
202	1243597 2358 3614 243309 6.320704125772 106.83269290928 80 40 40 3200 128000
vector 203 FanetGpsr.host[28].wlan[0].mac rcvdPkFromLl:vector(packetBytes) ETV
attr interpolationmode none
attr source packetReceivedFromLower
attr title "packets received from lower layer, vector(packetBytes)"
203	1245955 9806 3618 242901 6.320704144999 106.54932603286 326 56 140 35392 4380992
vector 204 FanetGpsr.host[28].wlan[0].mac passedUpPk:vector(packetBytes) ETV
attr interpolationmode none
attr source packetSentToUpper
attr title "packets passed to higher layer, vector(packetBytes)"
204	1255761 3599 3618 241034 6.320704144999 105.913978034768 122 40 40 4880 195200
vector 205 FanetGpsr.host[45].wlan[0].mac rcvdPkFromHl:vector(packetBytes) ETV
attr interpolationmode none
attr source packetReceivedFromUpper
attr title "packets received from higher layer, vector(packetBytes)"
205	1259360 439 3731 234523 6.448477625381 103.348737440537 15 40 124 1020 92880
vector 206 FanetGpsr.host[45].wlan[0].mac.queue packetPushed:vector(packetBytes) ETV
attr interpolationmode none
attr title "packet pushed, vector(packetBytes)"
206	1259799 439 3731 234523 6.448477625381 103.348737440537 15 40 124 1020 92880
vector 207 FanetGpsr.host[45].wlan[0].mac.queue queueLength:vector ETV
attr interpolationmode sample-hold
attr source "count(packetPushed) - count(packetPopped) - count(packetRemoved) - count(packetDropped)"
attr title "queue length, vector"
207	1260238 838 3731 234523 6.448477625381 103.348737440537 30 0 1 15 15
vector 208 FanetGpsr.host[45].wlan[0].mac.queue packetPopped:vector(packetBytes) ETV
attr interpolationmode none
attr title "packet popped, vector(packetBytes)"
208	1261076 439 3731 234523 6.448477625381 103.348737440537 15 40 124 1020 92880
vector 209 FanetGpsr.host[45].wlan[0].mac.queue queueingTime:vector ETV
attr interpolationmode none
attr source queueingTime(packetPopped)
attr title "queueing times, vector"
attr unit s
209	1261515 419 3731 234523 6.448477625381 103.348737440537 15 0 0 0 0
vector 210 FanetGpsr.host[45].wlan[0].mac sentDownPk:vector(packetBytes) ETV
attr interpolationmode none
attr source packetSentToLower
attr title "packets sent to lower layer, vector(packetBytes)"
210	1261934 439 3731 234523 6.448477625381 103.348737440537 15 56 140 1260 129360
vector 211 FanetGpsr.host[21].wlan[0].mac rcvdPkFromLl:vector(packetBytes) ETV
attr interpolationmode none
attr source packetReceivedFromLower
attr title "packets received from lower layer, vector(packetBytes)"
211	1262373 16234 3784 243317 6.448500405604 106.832693019194 537 56 140 64428 8417808
vector 212 FanetGpsr.host[21].wlan[0].mac passedUpPk:vector(packetBytes) ETV
attr interpolationmode none
attr source packetSentToUpper
attr title "packets passed to higher layer, vector(packetBytes)"
212	1278607 3862 3784 243317 6.448500405604 106.832693019194 131 40 124 5492 250928
vector 213 FanetGpsr.host[22].wlan[0].mac rcvdPkFromLl:vector(packetBytes) ETV
attr interpolationmode none
attr source packetReceivedFromLower
attr title "packets received from lower layer, vector(packetBytes)"
213	1282469 17048 3788 242681 6.448500513095 106.549223680971 563 56 140 66640 8647520
vector 214 FanetGpsr.host[22].wlan[0].mac passedUpPk:vector(packetBytes) ETV
attr interpolationmode none
attr source packetSentToUpper
attr title "packets passed to higher layer, vector(packetBytes)"
214	1299517 5676 3788 242450 6.448500513095 106.549121255555 190 40 124 11380 923920
vector 215 FanetGpsr.host[8].wlan[0].mac rcvdPkFromLl:vector(packetBytes) ETV
attr interpolationmode none
attr source packetReceivedFromLower
attr title "packets received from lower layer, vector(packetBytes)"
215	1305193 16430 3792 243305 6.448500517996 106.83269277409 544 56 140 65912 8653792
vector 216 FanetGpsr.host[8].wlan[0].mac passedUpPk:vector(packetBytes) ETV
attr interpolationmode none
attr source packetSentToUpper
attr title "packets passed to higher layer, vector(packetBytes)"
216	1321623 3583 3792 243305 6.448500517996 106.83269277409 122 40 40 4880 195200
vector 217 FanetGpsr.host[10].wlan[0].mac rcvdPkFromLl:vector(packetBytes) ETV
attr interpolationmode none
attr source packetReceivedFromLower
attr title "packets received from lower layer, vector(packetBytes)"
217	1325206 16319 3796 242688 6.448500560904 106.549223783011 538 56 140 64652 8453872
vector 218 FanetGpsr.host[10].wlan[0].mac passedUpPk:vector(packetBytes) ETV
attr interpolationmode none
attr source packetSentToUpper
attr title "packets passed to higher layer, vector(packetBytes)"
218	1341525 3854 3796 241332 6.448500560904 106.236266905019 131 40 124 5576 264704
vector 219 FanetGpsr.host[13].wlan[0].mac rcvdPkFromLl:vector(packetBytes) ETV
attr interpolationmode none
attr source packetReceivedFromLower
attr title "packets received from lower layer, vector(packetBytes)"
219	1345379 18374 3800 243293 6.448500612338 106.832692662121 607 56 140 72800 9509920
vector 220 FanetGpsr.host[13].wlan[0].mac passedUpPk:vector(packetBytes) ETV
attr interpolationmode none
attr source packetSentToUpper
attr title "packets passed to higher layer, vector(packetBytes)"
220	1363753 8853 3800 243293 6.448500612338 106.832692662121 295 40 124 24400 2538400
vector 221 FanetGpsr.host[4].wlan[0].mac rcvdPkFromLl:vector(packetBytes) ETV
attr interpolationmode none
attr source packetReceivedFromLower
attr title "packets received from lower layer, vector(packetBytes)"
221	1372606 18402 3804 242679 6.448500629854 106.549223676568 607 56 140 72884 9526384
vector 222 FanetGpsr.host[4].wlan[0].mac passedUpPk:vector(packetBytes) ETV
attr interpolationmode none
attr source packetSentToUpper
attr title "packets passed to higher layer, vector(packetBytes)"
222	1391008 4248 3804 241328 6.448500629854 106.236266874803 144 40 40 5760 230400
vector 223 FanetGpsr.host[17].wlan[0].mac rcvdPkFromLl:vector(packetBytes) ETV
attr interpolationmode none
attr source packetReceivedFromLower
attr title "packets received from lower layer, vector(packetBytes)"
223	1395256 13679 3808 242553 6.448500630974 106.549172233499 453 56 140 51828 6606768
vector 224 FanetGpsr.host[17].wlan[0].mac passedUpPk:vector(packetBytes) ETV
attr interpolationmode none
attr source packetSentToUpper
attr title "packets passed to higher layer, vector(packetBytes)"
224	1408935 8693 3808 242232 6.448500630974 106.549018698776 290 40 124 24368 2557952
vector 225 FanetGpsr.host[34].wlan[0].mac rcvdPkFromLl:vector(packetBytes) ETV
attr interpolationmode none
attr source packetReceivedFromLower
attr title "packets received from lower layer, vector(packetBytes)"
225	1417628 14535 3812 242569 6.448500637022 106.5491724316 481 56 140 57848 7567168
vector 226 FanetGpsr.host[34].wlan[0].mac passedUpPk:vector(packetBytes) ETV
attr interpolationmode none
attr source packetSentToUpper
attr title "packets passed to higher layer, vector(packetBytes)"
226	1432163 3358 3812 241340 6.448500637022 106.236266961406 114 40 124 4644 196176
vector 227 FanetGpsr.host[23].wlan[0].mac rcvdPkFromLl:vector(packetBytes) ETV
attr interpolationmode none
attr source packetReceivedFromLower
attr title "packets received from lower layer, vector(packetBytes)"
227	1435521 16107 3816 243289 6.44850067932 106.832692629119 531 56 140 64428 8464848
vector 228 FanetGpsr.host[23].wlan[0].mac passedUpPk:vector(packetBytes) ETV
attr interpolationmode none
attr source packetSentToUpper
attr title "packets passed to higher layer, vector(packetBytes)"
228	1451628 4899 3816 243289 6.44850067932 106.832692629119 164 40 124 10424 896096
vector 229 FanetGpsr.host[3].wlan[0].mac rcvdPkFromLl:vector(packetBytes) ETV
attr interpolationmode none
attr source packetReceivedFromLower
attr title "packets received from lower layer, vector(packetBytes)"
229	1456527 13092 3820 242555 6.448500835849 106.549172297375 433 56 140 50540 6511120
vector 230 FanetGpsr.host[3].wlan[0].mac passedUpPk:vector(packetBytes) ETV
attr interpolationmode none
attr source packetSentToUpper
attr title "packets passed to higher layer, vector(packetBytes)"
230	1469619 3657 3820 241308 6.448500835849 106.236266542609 124 40 124 5296 253504
vector 231 FanetGpsr.host[44].wlan[0].mac rcvdPkFromLl:vector(packetBytes) ETV
attr interpolationmode none
attr source packetReceivedFromLower
attr title "packets received from lower layer, vector(packetBytes)"
231	1473276 13007 3824 242565 6.448500891604 106.54917238148 431 56 140 50344 6488384
vector 232 FanetGpsr.host[44].wlan[0].mac passedUpPk:vector(packetBytes) ETV
attr interpolationmode none
attr source packetSentToUpper
attr title "packets passed to higher layer, vector(packetBytes)"
232	1486283 3651 3824 236820 6.448500891604 103.884940427882 124 40 124 5380 267280
vector 233 FanetGpsr.host[16].wlan[0].mac rcvdPkFromLl:vector(packetBytes) ETV
attr interpolationmode none
attr source packetReceivedFromLower
attr title "packets received from lower layer, vector(packetBytes)"
233	1489934 12862 3828 242563 6.448500912361 106.549172374449 425 56 140 50428 6551888
vector 234 FanetGpsr.host[16].wlan[0].mac passedUpPk:vector(packetBytes) ETV
attr interpolationmode none
attr source packetSentToUpper
attr title "packets passed to higher layer, vector(packetBytes)"
234	1502796 3173 3828 241304 6.448500912361 106.236266422101 108 40 40 4320 172800
vector 235 FanetGpsr.host[25].wlan[0].mac rcvdPkFromLl:vector(packetBytes) ETV
attr interpolationmode none
attr source packetReceivedFromLower
attr title "packets received from lower layer, vector(packetBytes)"
235	1505969 15151 3832 242784 6.448500922876 106.549274731573 499 56 140 61712 8183392
vector 236 FanetGpsr.host[25].wlan[0].mac passedUpPk:vector(packetBytes) ETV
attr interpolationmode none
attr source packetSentToUpper
attr title "packets passed to higher layer, vector(packetBytes)"
236	1521120 3007 3832 238639 6.448500922876 104.75029114999 102 40 124 4500 232080
vector 237 FanetGpsr.host[18].wlan[0].mac rcvdPkFromHl:vector(packetBytes) ETV
attr interpolationmode none
attr source packetReceivedFromUpper
attr title "packets received from higher layer, vector(packetBytes)"
237	1524127 353 3920 238426 6.536943034735 104.674591033254 12 40 124 564 32976
vector 238 FanetGpsr.host[18].wlan[0].mac.queue packetPushed:vector(packetBytes) ETV
attr interpolationmode none
attr title "packet pushed, vector(packetBytes)"
238	1524480 353 3920 238426 6.536943034735 104.674591033254 12 40 124 564 32976
vector 239 FanetGpsr.host[18].wlan[0].mac.queue queueLength:vector ETV
attr interpolationmode sample-hold
attr source "count(packetPushed) - count(packetPopped) - count(packetRemoved) - count(packetDropped)"
attr title "queue length, vector"
239	1524833 680 3920 238426 6.536943034735 104.674591033254 24 0 1 12 12
vector 240 FanetGpsr.host[18].wlan[0].mac.queue packetPopped:vector(packetBytes) ETV
attr interpolationmode none
attr title "packet popped, vector(packetBytes)"
240	1525513 353 3920 238426 6.536943034735 104.674591033254 12 40 124 564 32976
vector 241 FanetGpsr.host[18].wlan[0].mac.queue queueingTime:vector ETV
attr interpolationmode none
attr source queueingTime(packetPopped)
attr title "queueing times, vector"
attr unit s
241	1525866 340 3920 238426 6.536943034735 104.674591033254 12 0 0 0 0
vector 242 FanetGpsr.host[18].wlan[0].mac sentDownPk:vector(packetBytes) ETV
attr interpolationmode none
attr source packetSentToLower
attr title "packets sent to lower layer, vector(packetBytes)"
242	1526206 353 3920 238426 6.536943034735 104.674591033254 12 56 140 756 54096
vector 243 FanetGpsr.host[46].wlan[0].mac rcvdPkFromHl:vector(packetBytes) ETV
attr interpolationmode none
attr source packetReceivedFromUpper
attr title "packets received from higher layer, vector(packetBytes)"
243	1526559 444 4093 230893 6.649588714354 101.650313991121 15 40 136 960 85344
vector 244 FanetGpsr.host[46].wlan[0].mac.queue packetPushed:vector(packetBytes) ETV
attr interpolationmode none
attr title "packet pushed, vector(packetBytes)"
244	1527003 444 4093 230893 6.649588714354 101.650313991121 15 40 136 960 85344
vector 245 FanetGpsr.host[46].wlan[0].mac.queue queueLength:vector ETV
attr interpolationmode sample-hold
attr source "count(packetPushed) - count(packetPopped) - count(packetRemoved) - count(packetDropped)"
attr title "queue length, vector"
245	1527447 850 4093 230893 6.649588714354 101.650313991121 30 0 1 15 15
vector 246 FanetGpsr.host[46].wlan[0].mac.queue packetPopped:vector(packetBytes) ETV
attr interpolationmode none
attr title "packet popped, vector(packetBytes)"
246	1528297 444 4093 230893 6.649588714354 101.650313991121 15 40 136 960 85344
vector 247 FanetGpsr.host[46].wlan[0].mac.queue queueingTime:vector ETV
attr interpolationmode none
attr source queueingTime(packetPopped)
attr title "queueing times, vector"
attr unit s
247	1528741 425 4093 230893 6.649588714354 101.650313991121 15 0 0 0 0
vector 248 FanetGpsr.host[46].wlan[0].mac sentDownPk:vector(packetBytes) ETV
attr interpolationmode none
attr source packetSentToLower
attr title "packets sent to lower layer, vector(packetBytes)"
248	1529166 444 4093 230893 6.649588714354 101.650313991121 15 56 152 1200 119904
vector 249 FanetGpsr.host[1].wlan[0].mac rcvdPkFromLl:vector(packetBytes) ETV
attr interpolationmode none
attr source packetReceivedFromLower
attr title "packets received from lower layer, vector(packetBytes)"
249	1529610 7171 4146 243798 6.649611568873 107.305384589805 239 56 152 23092 2656880
vector 250 FanetGpsr.host[1].wlan[0].mac passedUpPk:vector(packetBytes) ETV
attr interpolationmode none
attr source packetSentToUpper
attr title "packets passed to higher layer, vector(packetBytes)"
250	1536781 3658 4146 243798 6.649611568873 107.305384589805 124 40 40 4960 198400
vector 251 FanetGpsr.host[47].wlan[0].mac rcvdPkFromLl:vector(packetBytes) ETV
attr interpolationmode none
attr source packetReceivedFromLower
attr title "packets received from lower layer, vector(packetBytes)"
251	1540439 6194 4154 243164 6.649611695675 106.798032304268 207 56 152 20940 2483664
vector 252 FanetGpsr.host[47].wlan[0].mac passedUpPk:vector(packetBytes) ETV
attr interpolationmode none
attr source packetSentToUpper
attr title "packets passed to higher layer, vector(packetBytes)"
252	1546633 2892 4154 243164 6.649611695675 106.798032304268 98 40 124 4088 184352
vector 253 FanetGpsr.host[41].wlan[0].mac rcvdPkFromLl:vector(packetBytes) ETV
attr interpolationmode none
attr source packetReceivedFromLower
attr title "packets received from lower layer, vector(packetBytes)"
253	1549525 7160 4158 241868 6.649611722995 106.548864279259 239 56 152 22984 2633408
vector 254 FanetGpsr.host[41].wlan[0].mac passedUpPk:vector(packetBytes) ETV
attr interpolationmode none
attr source packetSentToUpper
attr title "packets passed to higher layer, vector(packetBytes)"
254	1556685 3711 4158 241748 6.649611722995 106.511805093097 126 40 124 5124 215376
vector 255 FanetGpsr.host[12].wlan[0].mac rcvdPkFromLl:vector(packetBytes) ETV
attr interpolationmode none
attr source packetReceivedFromLower
attr title "packets received from lower layer, vector(packetBytes)"
255	1560396 6252 4162 241888 6.649611757259 106.548864715138 208 56 152 20996 2486800
vector 256 FanetGpsr.host[12].wlan[0].mac passedUpPk:vector(packetBytes) ETV
attr interpolationmode none
attr source packetSentToUpper
attr title "packets passed to higher layer, vector(packetBytes)"
256	1566648 2860 4162 241740 6.649611757259 106.511804999511 97 40 40 3880 155200
vector 257 FanetGpsr.host[0].wlan[0].mac rcvdPkFromLl:vector(packetBytes) ETV
attr interpolationmode none
attr source packetReceivedFromLower
attr title "packets received from lower layer, vector(packetBytes)"
257	1569508 9946 4170 242909 6.649611813731 106.549326204918 329 56 152 35584 4397408
vector 258 FanetGpsr.host[0].wlan[0].mac passedUpPk:vector(packetBytes) ETV
attr interpolationmode none
attr source packetSentToUpper
attr title "packets passed to higher layer, vector(packetBytes)"
258	1579454 6700 4170 242909 6.649611813731 106.549326204918 223 40 136 17176 1713088
vector 259 FanetGpsr.host[42].wlan[0].mac rcvdPkFromLl:vector(packetBytes) ETV
attr interpolationmode none
attr source packetReceivedFromLower
attr title "packets received from lower layer, vector(packetBytes)"
259	1586154 13112 4182 242903 6.649612012912 106.549326167933 433 56 152 49808 6369952
vector 260 FanetGpsr.host[42].wlan[0].mac passedUpPk:vector(packetBytes) ETV
attr interpolationmode none
attr source packetSentToUpper
attr title "packets passed to higher layer, vector(packetBytes)"
260	1599266 3801 4182 241465 6.649612012912 106.267881438756 129 40 40 5160 206400
vector 261 FanetGpsr.host[30].wlan[0].mac rcvdPkFromLl:vector(packetBytes) ETV
attr interpolationmode none
attr source packetReceivedFromLower
attr title "packets received from lower layer, vector(packetBytes)"
261	1603067 14206 4186 242899 6.64961201885 106.549326020607 472 56 152 52748 6640432
vector 262 FanetGpsr.host[30].wlan[0].mac passedUpPk:vector(packetBytes) ETV
attr interpolationmode none
attr source packetSentToUpper
attr title "packets passed to higher layer, vector(packetBytes)"
262	1617273 4684 4186 241481 6.64961201885 106.267881473014 159 40 40 6360 254400
vector 263 FanetGpsr.host[36].wlan[0].mac rcvdPkFromHl:vector(packetBytes) ETV
attr interpolationmode none
attr source packetReceivedFromUpper
attr title "packets received from higher layer, vector(packetBytes)"
263	1621957 442 4280 230751 6.749088722281 101.616787144448 15 40 124 852 65328
vector 264 FanetGpsr.host[36].wlan[0].mac.queue packetPushed:vector(packetBytes) ETV
attr interpolationmode none
attr title "packet pushed, vector(packetBytes)"
264	1622399 442 4280 230751 6.749088722281 101.616787144448 15 40 124 852 65328
vector 265 FanetGpsr.host[36].wlan[0].mac.queue queueLength:vector ETV
attr interpolationmode sample-hold
attr source "count(packetPushed) - count(packetPopped) - count(packetRemoved) - count(packetDropped)"
attr title "queue length, vector"
265	1622841 848 4280 230751 6.749088722281 101.616787144448 30 0 1 15 15
vector 266 FanetGpsr.host[36].wlan[0].mac.queue packetPopped:vector(packetBytes) ETV
attr interpolationmode none
attr title "packet popped, vector(packetBytes)"
266	1623689 442 4280 230751 6.749088722281 101.616787144448 15 40 124 852 65328
vector 267 FanetGpsr.host[36].wlan[0].mac.queue queueingTime:vector ETV
attr interpolationmode none
attr source queueingTime(packetPopped)
attr title "queueing times, vector"
attr unit s
267	1624131 424 4280 230751 6.749088722281 101.616787144448 15 0 0 0 0
vector 268 FanetGpsr.host[36].wlan[0].mac sentDownPk:vector(packetBytes) ETV
attr interpolationmode none
attr source packetSentToLower
attr title "packets sent to lower layer, vector(packetBytes)"
268	1624555 442 4280 230751 6.749088722281 101.616787144448 15 56 140 1092 96432
vector 269 FanetGpsr.host[20].wlan[0].mac rcvdPkFromLl:vector(packetBytes) ETV
attr interpolationmode none
attr source packetReceivedFromLower
attr title "packets received from lower layer, vector(packetBytes)"
269	1624997 8282 4337 242578 6.749111638221 106.549172565816 273 56 140 32760 4280640
vector 270 FanetGpsr.host[20].wlan[0].mac passedUpPk:vector(packetBytes) ETV
attr interpolationmode none
attr source packetSentToUpper
attr title "packets passed to higher layer, vector(packetBytes)"
270	1633279 4839 4337 242344 6.749111638221 106.549069945294 160 40 124 14380 1564720
vector 271 FanetGpsr.host[43].wlan[0].mac rcvdPkFromHl:vector(packetBytes) ETV
attr interpolationmode none
attr source packetReceivedFromUpper
attr title "packets received from higher layer, vector(packetBytes)"
271	1638118 382 4450 241663 6.832798395772 106.511781800072 13 40 124 688 48352
vector 272 FanetGpsr.host[43].wlan[0].mac.queue packetPushed:vector(packetBytes) ETV
attr interpolationmode none
attr title "packet pushed, vector(packetBytes)"
272	1638500 382 4450 241663 6.832798395772 106.511781800072 13 40 124 688 48352
vector 273 FanetGpsr.host[43].wlan[0].mac.queue queueLength:vector ETV
attr interpolationmode sample-hold
attr source "count(packetPushed) - count(packetPopped) - count(packetRemoved) - count(packetDropped)"
attr title "queue length, vector"
273	1638882 734 4450 241663 6.832798395772 106.511781800072 26 0 1 13 13
vector 274 FanetGpsr.host[43].wlan[0].mac.queue packetPopped:vector(packetBytes) ETV
attr interpolationmode none
attr title "packet popped, vector(packetBytes)"
274	1639616 382 4450 241663 6.832798395772 106.511781800072 13 40 124 688 48352
vector 275 FanetGpsr.host[43].wlan[0].mac.queue queueingTime:vector ETV
attr interpolationmode none
attr source queueingTime(packetPopped)
attr title "queueing times, vector"
attr unit s
275	1639998 367 4450 241663 6.832798395772 106.511781800072 13 0 0 0 0
vector 276 FanetGpsr.host[43].wlan[0].mac sentDownPk:vector(packetBytes) ETV
attr interpolationmode none
attr source packetSentToLower
attr title "packets sent to lower layer, vector(packetBytes)"
276	1640365 382 4450 241663 6.832798395772 106.511781800072 13 56 140 896 73696
vector 277 FanetGpsr.host[46].wlan[0].mac rcvdPkFromLl:vector(packetBytes) ETV
attr interpolationmode none
attr source packetReceivedFromLower
attr title "packets received from lower layer, vector(packetBytes)"
277	1640747 6515 4515 243790 6.832821369324 107.305384527599 217 56 152 21500 2515024
vector 278 FanetGpsr.host[46].wlan[0].mac passedUpPk:vector(packetBytes) ETV
attr interpolationmode none
attr source packetSentToUpper
attr title "packets passed to higher layer, vector(packetBytes)"
278	1647262 3243 4515 243790 6.832821369324 107.305384527599 110 40 136 4760 237344
vector 279 FanetGpsr.host[26].wlan[0].mac rcvdPkFromHl:vector(packetBytes) ETV
attr interpolationmode none
attr source packetReceivedFromUpper
attr title "packets received from higher layer, vector(packetBytes)"
279	1650505 528 4599 229230 6.864582186099 101.398222167044 18 40 124 1308 125232
vector 280 FanetGpsr.host[26].wlan[0].mac.queue packetPushed:vector(packetBytes) ETV
attr interpolationmode none
attr title "packet pushed, vector(packetBytes)"
280	1651033 528 4599 229230 6.864582186099 101.398222167044 18 40 124 1308 125232
vector 281 FanetGpsr.host[26].wlan[0].mac.queue queueLength:vector ETV
attr interpolationmode sample-hold
attr source "count(packetPushed) - count(packetPopped) - count(packetRemoved) - count(packetDropped)"
attr title "queue length, vector"
281	1651561 1006 4599 229230 6.864582186099 101.398222167044 36 0 1 18 18
vector 282 FanetGpsr.host[26].wlan[0].mac.queue packetPopped:vector(packetBytes) ETV
attr interpolationmode none
attr title "packet popped, vector(packetBytes)"
282	1652567 528 4599 229230 6.864582186099 101.398222167044 18 40 124 1308 125232
vector 283 FanetGpsr.host[26].wlan[0].mac.queue queueingTime:vector ETV
attr interpolationmode none
attr source queueingTime(packetPopped)
attr title "queueing times, vector"
attr unit s
283	1653095 503 4599 229230 6.864582186099 101.398222167044 18 0 0 0 0
vector 284 FanetGpsr.host[26].wlan[0].mac sentDownPk:vector(packetBytes) ETV
attr interpolationmode none
attr source packetSentToLower
attr title "packets sent to lower layer, vector(packetBytes)"
284	1653598 528 4599 229230 6.864582186099 101.398222167044 18 56 140 1596 171696
vector 285 FanetGpsr.host[39].wlan[0].mac rcvdPkFromLl:vector(packetBytes) ETV
attr interpolationmode none
attr source packetReceivedFromLower
attr title "packets received from lower layer, vector(packetBytes)"
285	1654126 15295 4656 243297 6.864604997467 106.832692689802 505 56 140 63812 8547952
vector 286 FanetGpsr.host[39].wlan[0].mac passedUpPk:vector(packetBytes) ETV
attr interpolationmode none
attr source packetSentToUpper
attr title "packets passed to higher layer, vector(packetBytes)"
286	1669421 2959 4656 243297 6.864604997467 106.832692689802 100 40 124 5512 407968
vector 287 FanetGpsr.host[37].wlan[0].mac rcvdPkFromLl:vector(packetBytes) ETV
attr interpolationmode none
attr source packetReceivedFromLower
attr title "packets received from lower layer, vector(packetBytes)"
287	1672380 15771 4660 243301 6.864605071468 106.832692726971 519 56 140 64848 8641248
vector 288 FanetGpsr.host[37].wlan[0].mac passedUpPk:vector(packetBytes) ETV
attr interpolationmode none
attr source packetSentToUpper
attr title "packets passed to higher layer, vector(packetBytes)"
288	1688151 8129 4660 243301 6.864605071468 106.832692726971 269 40 124 25544 2854976
vector 289 FanetGpsr.host[29].wlan[0].mac rcvdPkFromLl:vector(packetBytes) ETV
attr interpolationmode none
attr source packetReceivedFromLower
attr title "packets received from lower layer, vector(packetBytes)"
289	1696280 16160 4676 243321 6.864605428122 106.832693023704 533 56 140 64288 8421728
vector 290 FanetGpsr.host[29].wlan[0].mac passedUpPk:vector(packetBytes) ETV
attr interpolationmode none
attr source packetSentToUpper
attr title "packets passed to higher layer, vector(packetBytes)"
290	1712440 3624 4676 243321 6.864605428122 106.832693023704 123 40 40 4920 196800
vector 291 FanetGpsr.host[9].wlan[0].mac rcvdPkFromLl:vector(packetBytes) ETV
attr interpolationmode none
attr source packetReceivedFromLower
attr title "packets received from lower layer, vector(packetBytes)"
291	1716064 15478 4684 242891 6.864605476777 106.549325806891 510 56 140 61992 8152032
vector 292 FanetGpsr.host[9].wlan[0].mac passedUpPk:vector(packetBytes) ETV
attr interpolationmode none
attr source packetSentToUpper
attr title "packets passed to higher layer, vector(packetBytes)"
292	1731542 3510 4684 241493 6.864605476777 106.267881551879 119 40 124 5348 286832
vector 293 FanetGpsr.host[44].wlan[0].mac rcvdPkFromHl:vector(packetBytes) ETV
attr interpolationmode none
attr source packetReceivedFromUpper
attr title "packets received from higher layer, vector(packetBytes)"
293	1735052 437 4816 241251 7.048657615669 106.236243671739 15 40 124 1020 92880
vector 294 FanetGpsr.host[44].wlan[0].mac.queue packetPushed:vector(packetBytes) ETV
attr interpolationmode none
attr title "packet pushed, vector(packetBytes)"
294	1735489 437 4816 241251 7.048657615669 106.236243671739 15 40 124 1020 92880
vector 295 FanetGpsr.host[44].wlan[0].mac.queue queueLength:vector ETV
attr interpolationmode sample-hold
attr source "count(packetPushed) - count(packetPopped) - count(packetRemoved) - count(packetDropped)"
attr title "queue length, vector"
295	1735926 834 4816 241251 7.048657615669 106.236243671739 30 0 1 15 15
vector 296 FanetGpsr.host[44].wlan[0].mac.queue packetPopped:vector(packetBytes) ETV
attr interpolationmode none
attr title "packet popped, vector(packetBytes)"
296	1736760 437 4816 241251 7.048657615669 106.236243671739 15 40 124 1020 92880
vector 297 FanetGpsr.host[44].wlan[0].mac.queue queueingTime:vector ETV
attr interpolationmode none
attr source queueingTime(packetPopped)
attr title "queueing times, vector"
attr unit s
297	1737197 417 4816 241251 7.048657615669 106.236243671739 15 0 0 0 0
vector 298 FanetGpsr.host[44].wlan[0].mac sentDownPk:vector(packetBytes) ETV
attr interpolationmode none
attr source packetSentToLower
attr title "packets sent to lower layer, vector(packetBytes)"
298	1737614 437 4816 241251 7.048657615669 106.236243671739 15 56 140 1260 129360
vector 299 FanetGpsr.host[36].wlan[0].mac rcvdPkFromLl:vector(packetBytes) ETV
attr interpolationmode none
attr source packetReceivedFromLower
attr title "packets received from lower layer, vector(packetBytes)"
299	1738051 11375 4885 242567 7.048680626785 106.54917241689 375 56 140 46284 6131664
vector 300 FanetGpsr.host[36].wlan[0].mac passedUpPk:vector(packetBytes) ETV
attr interpolationmode none
attr source packetSentToUpper
attr title "packets passed to higher layer, vector(packetBytes)"
300	1749426 2298 4885 241316 7.048680626785 106.236266635668 78 40 124 3456 179904
vector 301 FanetGpsr.host[45].wlan[0].mac rcvdPkFromLl:vector(packetBytes) ETV
attr interpolationmode none
[...]
vector 535 FanetGpsr.host[37].wlan[0].mac rcvdPkFromHl:vector(packetBytes) ETV
attr interpolationmode none
attr source packetReceivedFromUpper
attr title "packets received from higher layer, vector(packetBytes)"
535	2408991 5662 23100 242685 12.16859679902 106.549223707892 185 40 124 22184 2720576
vector 536 FanetGpsr.host[37].wlan[0].mac.queue packetPushed:vector(packetBytes) ETV
attr interpolationmode none
attr title "packet pushed, vector(packetBytes)"
536	2414653 5662 23100 242685 12.16859679902 106.549223707892 185 40 124 22184 2720576
vector 537 FanetGpsr.host[37].wlan[0].mac.queue queueLength:vector ETV
attr interpolationmode sample-hold
attr source "count(packetPushed) - count(packetPopped) - count(packetRemoved) - count(packetDropped)"
attr title "queue length, vector"
537	2420315 10602 23100 242685 12.16859679902 106.549223707892 370 0 1 185 185
vector 538 FanetGpsr.host[37].wlan[0].mac.queue packetPopped:vector(packetBytes) ETV
attr interpolationmode none
attr title "packet popped, vector(packetBytes)"
538	2430917 5662 23100 242685 12.16859679902 106.549223707892 185 40 124 22184 2720576
vector 539 FanetGpsr.host[37].wlan[0].mac.queue queueingTime:vector ETV
attr interpolationmode none
attr source queueingTime(packetPopped)
attr title "queueing times, vector"
attr unit s
539	2436579 5301 23100 242685 12.16859679902 106.549223707892 185 0 0 0 0
vector 540 FanetGpsr.host[37].wlan[0].mac sentDownPk:vector(packetBytes) ETV
attr interpolationmode none
attr source packetSentToLower
attr title "packets sent to lower layer, vector(packetBytes)"
540	2441880 5662 23100 242685 12.16859679902 106.549223707892 185 56 140 25144 3477824
vector 541 FanetGpsr.host[20].wlan[0].mac rcvdPkFromHl:vector(packetBytes) ETV
attr interpolationmode none
attr source packetReceivedFromUpper
attr title "packets received from higher layer, vector(packetBytes)"
541	2447542 3216 23300 242348 12.304421805311 106.549069945294 105 40 124 12180 1476720
vector 542 FanetGpsr.host[20].wlan[0].mac.queue packetPushed:vector(packetBytes) ETV
attr interpolationmode none
attr title "packet pushed, vector(packetBytes)"
542	2450758 3216 23300 242348 12.304421805311 106.549069945294 105 40 124 12180 1476720
vector 543 FanetGpsr.host[20].wlan[0].mac.queue queueLength:vector ETV
attr interpolationmode sample-hold
attr source "count(packetPushed) - count(packetPopped) - count(packetRemoved) - count(packetDropped)"
attr title "queue length, vector"
543	2453974 6032 23300 242348 12.304421805311 106.549069945294 210 0 1 105 105
vector 544 FanetGpsr.host[20].wlan[0].mac.queue packetPopped:vector(packetBytes) ETV
attr interpolationmode none
attr title "packet popped, vector(packetBytes)"
544	2460006 3216 23300 242348 12.304421805311 106.549069945294 105 40 124 12180 1476720
vector 545 FanetGpsr.host[20].wlan[0].mac.queue queueingTime:vector ETV
attr interpolationmode none
attr source queueingTime(packetPopped)
attr title "queueing times, vector"
attr unit s
545	2463222 3016 23300 242348 12.304421805311 106.549069945294 105 0 0 0 0
vector 546 FanetGpsr.host[20].wlan[0].mac sentDownPk:vector(packetBytes) ETV
attr interpolationmode none
attr source packetSentToLower
attr title "packets sent to lower layer, vector(packetBytes)"
546	2466238 3216 23300 242348 12.304421805311 106.549069945294 105 56 140 13860 1893360
vector 547 FanetGpsr.host[7].wlan[0].mac rcvdPkFromHl:vector(packetBytes) ETV
attr interpolationmode none
attr source packetReceivedFromUpper
attr title "packets received from higher layer, vector(packetBytes)"
547	2469454 326 23420 236543 12.308558025397 103.734405483119 11 40 40 440 17600
vector 548 FanetGpsr.host[7].wlan[0].mac.queue packetPushed:vector(packetBytes) ETV
attr interpolationmode none
attr title "packet pushed, vector(packetBytes)"
548	2469780 326 23420 236543 12.308558025397 103.734405483119 11 40 40 440 17600
vector 549 FanetGpsr.host[7].wlan[0].mac.queue queueLength:vector ETV
attr interpolationmode sample-hold
attr source "count(packetPushed) - count(packetPopped) - count(packetRemoved) - count(packetDropped)"
attr title "queue length, vector"
549	2470106 630 23420 236543 12.308558025397 103.734405483119 22 0 1 11 11
vector 550 FanetGpsr.host[7].wlan[0].mac.queue packetPopped:vector(packetBytes) ETV
attr interpolationmode none
attr title "packet popped, vector(packetBytes)"
550	2470736 326 23420 236543 12.308558025397 103.734405483119 11 40 40 440 17600
vector 551 FanetGpsr.host[7].wlan[0].mac.queue queueingTime:vector ETV
attr interpolationmode none
attr source queueingTime(packetPopped)
attr title "queueing times, vector"
attr unit s
551	2471062 315 23420 236543 12.308558025397 103.734405483119 11 0 0 0 0
vector 552 FanetGpsr.host[7].wlan[0].mac sentDownPk:vector(packetBytes) ETV
attr interpolationmode none
attr source packetSentToLower
attr title "packets sent to lower layer, vector(packetBytes)"
552	2471377 326 23420 236543 12.308558025397 103.734405483119 11 56 56 616 34496
vector 553 FanetGpsr.host[30].wlan[0].mac rcvdPkFromHl:vector(packetBytes) ETV
attr interpolationmode none
attr source packetReceivedFromUpper
attr title "packets received from higher layer, vector(packetBytes)"
553	2471703 297 23637 233859 12.470794708934 102.908534875607 10 40 40 400 16000
vector 554 FanetGpsr.host[30].wlan[0].mac.queue packetPushed:vector(packetBytes) ETV
attr interpolationmode none
attr title "packet pushed, vector(packetBytes)"
554	2472000 297 23637 233859 12.470794708934 102.908534875607 10 40 40 400 16000
vector 555 FanetGpsr.host[30].wlan[0].mac.queue queueLength:vector ETV
attr interpolationmode sample-hold
attr source "count(packetPushed) - count(packetPopped) - count(packetRemoved) - count(packetDropped)"
attr title "queue length, vector"
555	2472297 574 23637 233859 12.470794708934 102.908534875607 20 0 1 10 10
vector 556 FanetGpsr.host[30].wlan[0].mac.queue packetPopped:vector(packetBytes) ETV
attr interpolationmode none
attr title "packet popped, vector(packetBytes)"
556	2472871 297 23637 233859 12.470794708934 102.908534875607 10 40 40 400 16000
vector 557 FanetGpsr.host[30].wlan[0].mac.queue queueingTime:vector ETV
attr interpolationmode none
attr source queueingTime(packetPopped)
attr title "queueing times, vector"
attr unit s
557	2473168 287 23637 233859 12.470794708934 102.908534875607 10 0 0 0 0
vector 558 FanetGpsr.host[30].wlan[0].mac sentDownPk:vector(packetBytes) ETV
attr interpolationmode none
attr source packetSentToLower
attr title "packets sent to lower layer, vector(packetBytes)"
558	2473455 297 23637 233859 12.470794708934 102.908534875607 10 56 56 560 31360
vector 559 FanetGpsr.host[0].app[0] pingRxSeq:vector ETV
attr interpolationmode none
attr title "ping rx seq, vector"
559	2473752 2800 24918 242911 12.549326377592 106.549326204918 94 12 106 5548 398886
vector 560 FanetGpsr.host[0].app[0] rtt:vector ETV
attr interpolationmode none
attr title "ping round-trip time, vector"
attr unit s
560	2476552 3919 24918 242911 12.549326377592 106.549326204918 94 0.000512646578 0.000512889714 0.048201758793 2.4717123905601e-005
vector 561 FanetGpsr.host[0].app[0] numLost:vector ETV
attr interpolationmode none
attr title "pings lost, vector"
561	2480471 59 24918 131435 12.549326377592 58.549326392018 2 12 13 25 313
vector 562 FanetGpsr.host[4].wlan[0].mac rcvdPkFromHl:vector(packetBytes) ETV
attr interpolationmode none
attr source packetReceivedFromUpper
attr title "packets received from higher layer, vector(packetBytes)"
562	2480530 323 25549 234300 12.887394214049 103.201587575022 11 40 40 440 17600
vector 563 FanetGpsr.host[4].wlan[0].mac.queue packetPushed:vector(packetBytes) ETV
attr interpolationmode none
attr title "packet pushed, vector(packetBytes)"
563	2480853 323 25549 234300 12.887394214049 103.201587575022 11 40 40 440 17600
vector 564 FanetGpsr.host[4].wlan[0].mac.queue queueLength:vector ETV
attr interpolationmode sample-hold
attr source "count(packetPushed) - count(packetPopped) - count(packetRemoved) - count(packetDropped)"
attr title "queue length, vector"
564	2481176 624 25549 234300 12.887394214049 103.201587575022 22 0 1 11 11
vector 565 FanetGpsr.host[4].wlan[0].mac.queue packetPopped:vector(packetBytes) ETV
attr interpolationmode none
attr title "packet popped, vector(packetBytes)"
565	2481800 323 25549 234300 12.887394214049 103.201587575022 11 40 40 440 17600
vector 566 FanetGpsr.host[4].wlan[0].mac.queue queueingTime:vector ETV
attr interpolationmode none
attr source queueingTime(packetPopped)
attr title "queueing times, vector"
attr unit s
566	2482123 312 25549 234300 12.887394214049 103.201587575022 11 0 0 0 0
vector 567 FanetGpsr.host[4].wlan[0].mac sentDownPk:vector(packetBytes) ETV
attr interpolationmode none
attr source packetSentToLower
attr title "packets sent to lower layer, vector(packetBytes)"
567	2482435 323 25549 234300 12.887394214049 103.201587575022 11 56 56 616 34496
vector 568 FanetGpsr.host[28].wlan[0].mac rcvdPkFromHl:vector(packetBytes) ETV
attr interpolationmode none
attr source packetReceivedFromUpper
attr title "packets received from higher layer, vector(packetBytes)"
568	2482758 268 25786 241404 13.075802649837 106.267858371139 9 40 40 360 14400
vector 569 FanetGpsr.host[28].wlan[0].mac.queue packetPushed:vector(packetBytes) ETV
attr interpolationmode none
attr title "packet pushed, vector(packetBytes)"
569	2483026 268 25786 241404 13.075802649837 106.267858371139 9 40 40 360 14400
vector 570 FanetGpsr.host[28].wlan[0].mac.queue queueLength:vector ETV
attr interpolationmode sample-hold
attr source "count(packetPushed) - count(packetPopped) - count(packetRemoved) - count(packetDropped)"
attr title "queue length, vector"
570	2483294 518 25786 241404 13.075802649837 106.267858371139 18 0 1 9 9
vector 571 FanetGpsr.host[28].wlan[0].mac.queue packetPopped:vector(packetBytes) ETV
attr interpolationmode none
attr title "packet popped, vector(packetBytes)"
571	2483812 268 25786 241404 13.075802649837 106.267858371139 9 40 40 360 14400
vector 572 FanetGpsr.host[28].wlan[0].mac.queue queueingTime:vector ETV
attr interpolationmode none
attr source queueingTime(packetPopped)
attr title "queueing times, vector"
attr unit s
572	2484080 259 25786 241404 13.075802649837 106.267858371139 9 0 0 0 0
vector 573 FanetGpsr.host[28].wlan[0].mac sentDownPk:vector(packetBytes) ETV
attr interpolationmode none
attr source packetSentToLower
attr title "packets sent to lower layer, vector(packetBytes)"
573	2484339 268 25786 241404 13.075802649837 106.267858371139 9 56 56 504 28224
vector 574 FanetGpsr.host[42].wlan[0].mac rcvdPkFromHl:vector(packetBytes) ETV
attr interpolationmode none
attr source packetReceivedFromUpper
attr title "packets received from higher layer, vector(packetBytes)"
574	2484607 326 26093 234025 13.404285353608 102.936981397216 11 40 40 440 17600
vector 575 FanetGpsr.host[42].wlan[0].mac.queue packetPushed:vector(packetBytes) ETV
attr interpolationmode none
attr title "packet pushed, vector(packetBytes)"
575	2484933 326 26093 234025 13.404285353608 102.936981397216 11 40 40 440 17600
vector 576 FanetGpsr.host[42].wlan[0].mac.queue queueLength:vector ETV
attr interpolationmode sample-hold
attr source "count(packetPushed) - count(packetPopped) - count(packetRemoved) - count(packetDropped)"
attr title "queue length, vector"
576	2485259 630 26093 234025 13.404285353608 102.936981397216 22 0 1 11 11
vector 577 FanetGpsr.host[42].wlan[0].mac.queue packetPopped:vector(packetBytes) ETV
attr interpolationmode none
attr title "packet popped, vector(packetBytes)"
577	2485889 326 26093 234025 13.404285353608 102.936981397216 11 40 40 440 17600
vector 578 FanetGpsr.host[42].wlan[0].mac.queue queueingTime:vector ETV
attr interpolationmode none
attr source queueingTime(packetPopped)
attr title "queueing times, vector"
attr unit s
578	2486215 315 26093 234025 13.404285353608 102.936981397216 11 0 0 0 0
vector 579 FanetGpsr.host[42].wlan[0].mac sentDownPk:vector(packetBytes) ETV
attr interpolationmode none
attr source packetSentToLower
attr title "packets sent to lower layer, vector(packetBytes)"
579	2486530 326 26093 234025 13.404285353608 102.936981397216 11 56 56 616 34496
vector 580 FanetGpsr.host[29].wlan[0].mac rcvdPkFromHl:vector(packetBytes) ETV
attr interpolationmode none
attr source packetReceivedFromUpper
attr title "packets received from higher layer, vector(packetBytes)"
580	2486856 266 27496 222423 13.638556012884 98.212557134686 9 40 40 360 14400
vector 581 FanetGpsr.host[29].wlan[0].mac.queue packetPushed:vector(packetBytes) ETV
attr interpolationmode none
attr title "packet pushed, vector(packetBytes)"
581	2487122 266 27496 222423 13.638556012884 98.212557134686 9 40 40 360 14400
vector 582 FanetGpsr.host[29].wlan[0].mac.queue queueLength:vector ETV
attr interpolationmode sample-hold
attr source "count(packetPushed) - count(packetPopped) - count(packetRemoved) - count(packetDropped)"
attr title "queue length, vector"
582	2487388 514 27496 222423 13.638556012884 98.212557134686 18 0 1 9 9
vector 583 FanetGpsr.host[29].wlan[0].mac.queue packetPopped:vector(packetBytes) ETV
attr interpolationmode none
attr title "packet popped, vector(packetBytes)"
583	2487902 266 27496 222423 13.638556012884 98.212557134686 9 40 40 360 14400
vector 584 FanetGpsr.host[29].wlan[0].mac.queue queueingTime:vector ETV
attr interpolationmode none
attr source queueingTime(packetPopped)
attr title "queueing times, vector"
attr unit s
584	2488168 257 27496 222423 13.638556012884 98.212557134686 9 0 0 0 0
vector 585 FanetGpsr.host[29].wlan[0].mac sentDownPk:vector(packetBytes) ETV
attr interpolationmode none
attr source packetSentToLower
attr title "packets sent to lower layer, vector(packetBytes)"
585	2488425 266 27496 222423 13.638556012884 98.212557134686 9 56 56 504 28224
vector 586 FanetGpsr.host[8].wlan[0].mac rcvdPkFromHl:vector(packetBytes) ETV
attr interpolationmode none
attr source packetReceivedFromUpper
attr title "packets received from higher layer, vector(packetBytes)"
586	2488691 267 27721 228514 13.802976044826 100.811399396044 9 40 40 360 14400
vector 587 FanetGpsr.host[8].wlan[0].mac.queue packetPushed:vector(packetBytes) ETV
attr interpolationmode none
attr title "packet pushed, vector(packetBytes)"
587	2488958 267 27721 228514 13.802976044826 100.811399396044 9 40 40 360 14400
vector 588 FanetGpsr.host[8].wlan[0].mac.queue queueLength:vector ETV
attr interpolationmode sample-hold
attr source "count(packetPushed) - count(packetPopped) - count(packetRemoved) - count(packetDropped)"
attr title "queue length, vector"
588	2489225 516 27721 228514 13.802976044826 100.811399396044 18 0 1 9 9
vector 589 FanetGpsr.host[8].wlan[0].mac.queue packetPopped:vector(packetBytes) ETV
attr interpolationmode none
attr title "packet popped, vector(packetBytes)"
589	2489741 267 27721 228514 13.802976044826 100.811399396044 9 40 40 360 14400
vector 590 FanetGpsr.host[8].wlan[0].mac.queue queueingTime:vector ETV
attr interpolationmode none
attr source queueingTime(packetPopped)
attr title "queueing times, vector"
attr unit s
590	2490008 258 27721 228514 13.802976044826 100.811399396044 9 0 0 0 0
vector 591 FanetGpsr.host[8].wlan[0].mac sentDownPk:vector(packetBytes) ETV
attr interpolationmode none
attr source packetSentToLower
attr title "packets sent to lower layer, vector(packetBytes)"
591	2490266 267 27721 228514 13.802976044826 100.811399396044 9 56 56 504 28224
vector 592 FanetGpsr.host[5].wlan[0].mac rcvdPkFromHl:vector(packetBytes) ETV
attr interpolationmode none
attr source packetReceivedFromUpper
attr title "packets received from higher layer, vector(packetBytes)"
592	2490533 297 28460 243087 14.473705946002 106.798009064514 10 40 40 400 16000
vector 593 FanetGpsr.host[5].wlan[0].mac.queue packetPushed:vector(packetBytes) ETV
attr interpolationmode none
attr title "packet pushed, vector(packetBytes)"
593	2490830 297 28460 243087 14.473705946002 106.798009064514 10 40 40 400 16000
vector 594 FanetGpsr.host[5].wlan[0].mac.queue queueLength:vector ETV
attr interpolationmode sample-hold
attr source "count(packetPushed) - count(packetPopped) - count(packetRemoved) - count(packetDropped)"
attr title "queue length, vector"
594	2491127 574 28460 243087 14.473705946002 106.798009064514 20 0 1 10 10
vector 595 FanetGpsr.host[5].wlan[0].mac.queue packetPopped:vector(packetBytes) ETV
attr interpolationmode none
attr title "packet popped, vector(packetBytes)"
595	2491701 297 28460 243087 14.473705946002 106.798009064514 10 40 40 400 16000
vector 596 FanetGpsr.host[5].wlan[0].mac.queue queueingTime:vector ETV
attr interpolationmode none
attr source queueingTime(packetPopped)
attr title "queueing times, vector"
attr unit s
596	2491998 287 28460 243087 14.473705946002 106.798009064514 10 0 0 0 0
vector 597 FanetGpsr.host[5].wlan[0].mac sentDownPk:vector(packetBytes) ETV
attr interpolationmode none
attr source packetSentToLower
attr title "packets sent to lower layer, vector(packetBytes)"
597	2492285 297 28460 243087 14.473705946002 106.798009064514 10 56 56 560 31360
vector 598 FanetGpsr.host[12].wlan[0].mac rcvdPkFromHl:vector(packetBytes) ETV
attr interpolationmode none
attr source packetReceivedFromUpper
attr title "packets received from higher layer, vector(packetBytes)"
598	2492582 294 29789 229434 14.57450855989 101.545066619292 10 40 40 400 16000
vector 599 FanetGpsr.host[12].wlan[0].mac.queue packetPushed:vector(packetBytes) ETV
attr interpolationmode none
attr title "packet pushed, vector(packetBytes)"
599	2492876 294 29789 229434 14.57450855989 101.545066619292 10 40 40 400 16000
vector 600 FanetGpsr.host[12].wlan[0].mac.queue queueLength:vector ETV
attr interpolationmode sample-hold
attr source "count(packetPushed) - count(packetPopped) - count(packetRemoved) - count(packetDropped)"
attr title "queue length, vector"
600	2493170 568 29789 229434 14.57450855989 101.545066619292 20 0 1 10 10
vector 601 FanetGpsr.host[12].wlan[0].mac.queue packetPopped:vector(packetBytes) ETV
attr interpolationmode none
attr title "packet popped, vector(packetBytes)"
601	2493738 294 29789 229434 14.57450855989 101.545066619292 10 40 40 400 16000
vector 602 FanetGpsr.host[12].wlan[0].mac.queue queueingTime:vector ETV
attr interpolationmode none
attr source queueingTime(packetPopped)
attr title "queueing times, vector"
attr unit s
602	2494032 284 29789 229434 14.57450855989 101.545066619292 10 0 0 0 0
vector 603 FanetGpsr.host[12].wlan[0].mac sentDownPk:vector(packetBytes) ETV
attr interpolationmode none
attr source packetSentToLower
attr title "packets sent to lower layer, vector(packetBytes)"
603	2494316 294 29789 229434 14.57450855989 101.545066619292 10 56 56 560 31360
vector 604 FanetGpsr.host[29].wlan[0].mac packetDropIncorrectlyReceived:vector(packetBytes) ETV
attr interpolationmode none
attr source packetDropReasonIsIncorrectlyReceived(packetDropped)
attr title "packet drop: incorrectly received, vector(packetBytes)"
604	2494610 31 128448 128448 57.549274871363 57.549274871363 1 140 140 140 19600
vector 605 FanetGpsr.host[9].wlan[0].mac packetDropIncorrectlyReceived:vector(packetBytes) ETV
attr interpolationmode none
attr source packetDropReasonIsIncorrectlyReceived(packetDropped)
attr title "packet drop: incorrectly received, vector(packetBytes)"
605	2494641 31 128450 128450 57.549274929041 57.549274929041 1 140 140 140 19600
vector 606 FanetGpsr.host[2].wlan[0].mac packetDropIncorrectlyReceived:vector(packetBytes) ETV
attr interpolationmode none
attr source packetDropReasonIsIncorrectlyReceived(packetDropped)
attr title "packet drop: incorrectly received, vector(packetBytes)"
606	2494672 32 128454 128454 57.549275116536 57.549275116536 1 140 140 140 19600
