file 19743017 1626022656                                        
version 2
run f2-0-20210418-16:45:11-1912
attr configname f2
attr datetime 20210418-16:45:11
attr experiment f2
attr inifile omnetpp.ini
attr iterationvars ""
attr iterationvarsf ""
attr measurement ""
attr network FanetGpsr
attr processid 1912
attr repetition 0
attr replication #0
attr resultdir results
attr runnumber 0
attr seedset 0
param *.visualizer.osgVisualizer.typename "\"IntegratedOsgVisualizer\""
param *.visualizer.osgVisualizer.sceneVisualizer.clearColor "\"skyblue\""
param *.visualizer.osgVisualizer.sceneVisualizer.sceneImage "\"showcases/desert\""
param *.visualizer.osgVisualizer.sceneVisualizer.sceneImageSize 5000m
param *.visualizer.osgVisualizer.sceneVisualizer.axisLength 1000m
param *.visualizer.osgVisualizer.sceneVisualizer.sceneMinX -2000m
param *.visualizer.osgVisualizer.sceneVisualizer.sceneMinY -2000m
param *.visualizer.osgVisualizer.sceneVisualizer.sceneMinZ 0m
param *.visualizer.osgVisualizer.sceneVisualizer.sceneMaxX 3000m
param *.visualizer.osgVisualizer.sceneVisualizer.sceneMaxY 3000m
param *.visualizer.osgVisualizer.sceneVisualizer.sceneMaxZ 1000m
param *.visualizer.osgVisualizer.networkNodeVisualizer.displayModuleName false
param *.visualizer.*.mobilityVisualizer.displayMobility true
param *.visualizer.*.mobilityVisualizer.displayPositions true
param *.visualizer.*.mobilityVisualizer.displayOrientations true
param *.visualizer.*.mobilityVisualizer.displayVelocities true
param *.visualizer.*.mobilityVisualizer.displayMovementTrails true
param *.visualizer.*.mobilityVisualizer.animationSpeed 1
param **.constraintAreaMinX 0m
param **.constraintAreaMinY 0m
param **.constraintAreaMinZ 200m
param **.constraintAreaMaxX 1500m
param **.constraintAreaMaxY 500m
param **.constraintAreaMaxZ 400m
param *.numHosts 50
param *.host[*].osgModel "\"3d/drone.ive.100.scale.0,0,90.rot\""
param *.host*.mobility.typename "\"TurtleMobility\""
param *.host*.mobility.turtleScript "xmldoc(\"config.xml\")"
param *.host[0].numApps 1
param *.host[0].app[0].typename "\"PingApp\""
param *.host[0].app[0].destAddr "\"host[20]\""
param *.host[0].app[0].printPing true
param **.wlan[*].bitrate 24Mbps
param *.configurator.addStaticRoutes false
param **.netmaskRoutes "\"\""
param **.arp.typename "\"GlobalArp\""
param **.planarizationMode "\"RNG\""
param *.host*.wlan[0].typename "\"AckingWirelessInterface\""
param *.host*.wlan[0].radio.transmitter.communicationRange 300m

vector 0 FanetGpsr.host[0].wlan[0].radio radioMode:vector ETV
attr interpolationmode sample-hold
attr source radioModeChanged
attr title "Radio mode, vector"
0	121925 24 0 0 0 0 3 0 4 4 16
vector 1 FanetGpsr.host[1].wlan[0].radio radioMode:vector ETV
attr interpolationmode sample-hold
attr source radioModeChanged
attr title "Radio mode, vector"
1	121949 24 0 0 0 0 3 0 4 4 16
vector 2 FanetGpsr.host[2].wlan[0].radio radioMode:vector ETV
attr interpolationmode sample-hold
attr source radioModeChanged
attr title "Radio mode, vector"
2	121973 24 0 0 0 0 3 0 4 4 16
vector 3 FanetGpsr.host[3].wlan[0].radio radioMode:vector ETV
attr interpolationmode sample-hold
attr source radioModeChanged
attr title "Radio mode, vector"
3	121997 24 0 0 0 0 3 0 4 4 16
vector 4 FanetGpsr.host[4].wlan[0].radio radioMode:vector ETV
attr interpolationmode sample-hold
attr source radioModeChanged
attr title "Radio mode, vector"
4	122021 24 0 0 0 0 3 0 4 4 16
vector 5 FanetGpsr.host[5].wlan[0].radio radioMode:vector ETV
attr interpolationmode sample-hold
attr source radioModeChanged
attr title "Radio mode, vector"
5	122045 24 0 0 0 0 3 0 4 4 16
vector 6 FanetGpsr.host[6].wlan[0].radio radioMode:vector ETV
attr interpolationmode sample-hold
attr source radioModeChanged
attr title "Radio mode, vector"
6	122069 24 0 0 0 0 3 0 4 4 16
vector 7 FanetGpsr.host[7].wlan[0].radio radioMode:vector ETV
attr interpolationmode sample-hold
attr source radioModeChanged
attr title "Radio mode, vector"
7	122093 24 0 0 0 0 3 0 4 4 16
vector 8 FanetGpsr.host[8].wlan[0].radio radioMode:vector ETV
attr interpolationmode sample-hold
attr source radioModeChanged
attr title "Radio mode, vector"
8	122117 24 0 0 0 0 3 0 4 4 16
vector 9 FanetGpsr.host[9].wlan[0].radio radioMode:vector ETV
attr interpolationmode sample-hold
attr source radioModeChanged
attr title "Radio mode, vector"
9	122141 24 0 0 0 0 3 0 4 4 16
vector 10 FanetGpsr.host[10].wlan[0].radio radioMode:vector ETV
attr interpolationmode sample-hold
attr source radioModeChanged
attr title "Radio mode, vector"
10	122165 27 0 0 0 0 3 0 4 4 16
vector 11 FanetGpsr.host[11].wlan[0].radio radioMode:vector ETV
attr interpolationmode sample-hold
attr source radioModeChanged
attr title "Radio mode, vector"
11	122192 27 0 0 0 0 3 0 4 4 16
vector 12 FanetGpsr.host[12].wlan[0].radio radioMode:vector ETV
attr interpolationmode sample-hold
attr source radioModeChanged
attr title "Radio mode, vector"
12	122219 27 0 0 0 0 3 0 4 4 16
vector 13 FanetGpsr.host[13].wlan[0].radio radioMode:vector ETV
attr interpolationmode sample-hold
attr source radioModeChanged
attr title "Radio mode, vector"
13	122246 27 0 0 0 0 3 0 4 4 16
vector 14 FanetGpsr.host[14].wlan[0].radio radioMode:vector ETV
attr interpolationmode sample-hold
attr source radioModeChanged
attr title "Radio mode, vector"
14	122273 27 0 0 0 0 3 0 4 4 16
vector 15 FanetGpsr.host[15].wlan[0].radio radioMode:vector ETV
attr interpolationmode sample-hold
attr source radioModeChanged
attr title "Radio mode, vector"
15	122300 27 0 0 0 0 3 0 4 4 16
vector 16 FanetGpsr.host[16].wlan[0].radio radioMode:vector ETV
attr interpolationmode sample-hold
attr source radioModeChanged
attr title "Radio mode, vector"
16	122327 27 0 0 0 0 3 0 4 4 16
vector 17 FanetGpsr.host[17].wlan[0].radio radioMode:vector ETV
attr interpolationmode sample-hold
attr source radioModeChanged
attr title "Radio mode, vector"
17	122354 27 0 0 0 0 3 0 4 4 16
vector 18 FanetGpsr.host[18].wlan[0].radio radioMode:vector ETV
attr interpolationmode sample-hold
attr source radioModeChanged
attr title "Radio mode, vector"
18	122381 27 0 0 0 0 3 0 4 4 16
vector 19 FanetGpsr.host[19].wlan[0].radio radioMode:vector ETV
attr interpolationmode sample-hold
attr source radioModeChanged
attr title "Radio mode, vector"
19	122408 27 0 0 0 0 3 0 4 4 16
vector 20 FanetGpsr.host[20].wlan[0].radio radioMode:vector ETV
attr interpolationmode sample-hold
attr source radioModeChanged
attr title "Radio mode, vector"
20	122435 27 0 0 0 0 3 0 4 4 16
vector 21 FanetGpsr.host[21].wlan[0].radio radioMode:vector ETV
attr interpolationmode sample-hold
attr source radioModeChanged
attr title "Radio mode, vector"
21	122462 27 0 0 0 0 3 0 4 4 16
vector 22 FanetGpsr.host[22].wlan[0].radio radioMode:vector ETV
attr interpolationmode sample-hold
attr source radioModeChanged
attr title "Radio mode, vector"
22	122489 27 0 0 0 0 3 0 4 4 16
vector 23 FanetGpsr.host[23].wlan[0].radio radioMode:vector ETV
attr interpolationmode sample-hold
attr source radioModeChanged
attr title "Radio mode, vector"
23	122516 27 0 0 0 0 3 0 4 4 16
vector 24 FanetGpsr.host[24].wlan[0].radio radioMode:vector ETV
attr interpolationmode sample-hold
attr source radioModeChanged
attr title "Radio mode, vector"
24	122543 27 0 0 0 0 3 0 4 4 16
vector 25 FanetGpsr.host[25].wlan[0].radio radioMode:vector ETV
attr interpolationmode sample-hold
attr source radioModeChanged
attr title "Radio mode, vector"
25	122570 27 0 0 0 0 3 0 4 4 16
vector 26 FanetGpsr.host[26].wlan[0].radio radioMode:vector ETV
attr interpolationmode sample-hold
attr source radioModeChanged
attr title "Radio mode, vector"
26	122597 27 0 0 0 0 3 0 4 4 16
vector 27 FanetGpsr.host[27].wlan[0].radio radioMode:vector ETV
attr interpolationmode sample-hold
attr source radioModeChanged
attr title "Radio mode, vector"
27	122624 27 0 0 0 0 3 0 4 4 16
vector 28 FanetGpsr.host[28].wlan[0].radio radioMode:vector ETV
attr interpolationmode sample-hold
attr source radioModeChanged
attr title "Radio mode, vector"
28	122651 27 0 0 0 0 3 0 4 4 16
vector 29 FanetGpsr.host[29].wlan[0].radio radioMode:vector ETV
attr interpolationmode sample-hold
attr source radioModeChanged
attr title "Radio mode, vector"
29	122678 27 0 0 0 0 3 0 4 4 16
vector 30 FanetGpsr.host[30].wlan[0].radio radioMode:vector ETV
attr interpolationmode sample-hold
attr source radioModeChanged
attr title "Radio mode, vector"
30	122705 27 0 0 0 0 3 0 4 4 16
vector 31 FanetGpsr.host[31].wlan[0].radio radioMode:vector ETV
attr interpolationmode sample-hold
attr source radioModeChanged
attr title "Radio mode, vector"
31	122732 27 0 0 0 0 3 0 4 4 16
vector 32 FanetGpsr.host[32].wlan[0].radio radioMode:vector ETV
attr interpolationmode sample-hold
attr source radioModeChanged
attr title "Radio mode, vector"
32	122759 27 0 0 0 0 3 0 4 4 16
vector 33 FanetGpsr.host[33].wlan[0].radio radioMode:vector ETV
attr interpolationmode sample-hold
attr source radioModeChanged
attr title "Radio mode, vector"
33	122786 27 0 0 0 0 3 0 4 4 16
vector 34 FanetGpsr.host[34].wlan[0].radio radioMode:vector ETV
attr interpolationmode sample-hold
attr source radioModeChanged
attr title "Radio mode, vector"
34	122813 27 0 0 0 0 3 0 4 4 16
vector 35 FanetGpsr.host[35].wlan[0].radio radioMode:vector ETV
attr interpolationmode sample-hold
attr source radioModeChanged
attr title "Radio mode, vector"
35	122840 27 0 0 0 0 3 0 4 4 16
vector 36 FanetGpsr.host[36].wlan[0].radio radioMode:vector ETV
attr interpolationmode sample-hold
attr source radioModeChanged
attr title "Radio mode, vector"
36	122867 27 0 0 0 0 3 0 4 4 16
vector 37 FanetGpsr.host[37].wlan[0].radio radioMode:vector ETV
attr interpolationmode sample-hold
attr source radioModeChanged
attr title "Radio mode, vector"
37	122894 27 0 0 0 0 3 0 4 4 16
vector 38 FanetGpsr.host[38].wlan[0].radio radioMode:vector ETV
attr interpolationmode sample-hold
attr source radioModeChanged
attr title "Radio mode, vector"
38	122921 27 0 0 0 0 3 0 4 4 16
vector 39 FanetGpsr.host[39].wlan[0].radio radioMode:vector ETV
attr interpolationmode sample-hold
attr source radioModeChanged
attr title "Radio mode, vector"
39	122948 27 0 0 0 0 3 0 4 4 16
vector 40 FanetGpsr.host[40].wlan[0].radio radioMode:vector ETV
attr interpolationmode sample-hold
attr source radioModeChanged
attr title "Radio mode, vector"
40	122975 27 0 0 0 0 3 0 4 4 16
vector 41 FanetGpsr.host[41].wlan[0].radio radioMode:vector ETV
attr interpolationmode sample-hold
attr source radioModeChanged
attr title "Radio mode, vector"
41	123002 27 0 0 0 0 3 0 4 4 16
vector 42 FanetGpsr.host[42].wlan[0].radio radioMode:vector ETV
attr interpolationmode sample-hold
attr source radioModeChanged
attr title "Radio mode, vector"
42	123029 27 0 0 0 0 3 0 4 4 16
vector 43 FanetGpsr.host[43].wlan[0].radio radioMode:vector ETV
attr interpolationmode sample-hold
attr source radioModeChanged
attr title "Radio mode, vector"
43	123056 27 0 0 0 0 3 0 4 4 16
vector 44 FanetGpsr.host[44].wlan[0].radio radioMode:vector ETV
attr interpolationmode sample-hold
attr source radioModeChanged
attr title "Radio mode, vector"
44	123083 27 0 0 0 0 3 0 4 4 16
vector 45 FanetGpsr.host[45].wlan[0].radio radioMode:vector ETV
attr interpolationmode sample-hold
attr source radioModeChanged
attr title "Radio mode, vector"
45	123110 27 0 0 0 0 3 0 4 4 16
vector 46 FanetGpsr.host[46].wlan[0].radio radioMode:vector ETV
attr interpolationmode sample-hold
attr source radioModeChanged
attr title "Radio mode, vector"
46	123137 27 0 0 0 0 3 0 4 4 16
vector 47 FanetGpsr.host[47].wlan[0].radio radioMode:vector ETV
attr interpolationmode sample-hold
attr source radioModeChanged
attr title "Radio mode, vector"
47	123164 27 0 0 0 0 3 0 4 4 16
vector 48 FanetGpsr.host[48].wlan[0].radio radioMode:vector ETV
attr interpolationmode sample-hold
attr source radioModeChanged
attr title "Radio mode, vector"
48	123191 27 0 0 0 0 3 0 4 4 16
vector 49 FanetGpsr.host[49].wlan[0].radio radioMode:vector ETV
attr interpolationmode sample-hold
attr source radioModeChanged
attr title "Radio mode, vector"
49	123218 27 0 0 0 0 3 0 4 4 16
vector 50 FanetGpsr.host[0].wlan[0].radio receptionState:vector ETV
attr interpolationmode sample-hold
attr source receptionStateChanged
attr title "Radio reception state, vector"
50	123245 133856 0 1548350 0 803.421295464836 4613 1 3 9225 23061
50	16161216 26864 1548700 1927225 803.548866077635 1014.396695764244 898 1 3 1796 4490
vector 51 FanetGpsr.host[0].wlan[0].radio transmissionState:vector ETV
attr interpolationmode sample-hold
attr source transmissionStateChanged
attr title "Radio transmission state, vector"
51	257101 50910 0 1546774 0 802.548864168971 1747 1 2 2620 4366
51	16188080 13982 1548595 1927390 803.548813502304 1014.548813502304 465 1 2 698 1164
vector 52 FanetGpsr.host[1].wlan[0].radio receptionState:vector ETV
attr interpolationmode sample-hold
attr source receptionStateChanged
attr title "Radio reception state, vector"
52	308011 113030 0 1547737 0 803.038105034308 3901 1 3 7801 19501
52	16202062 17786 1551926 1926847 805.519252147748 1014.140099826884 594 1 3 1188 2970
vector 53 FanetGpsr.host[1].wlan[0].radio transmissionState:vector ETV
attr interpolationmode sample-hold
attr source transmissionStateChanged
attr title "Radio transmission state, vector"
53	421041 4478 0 1531903 0 793.888521153146 155 1 2 232 386
53	16219848 1199 1549932 1924781 804.282756252208 1013.062660061422 40 1 2 60 100
vector 54 FanetGpsr.host[2].wlan[0].radio receptionState:vector ETV
attr interpolationmode sample-hold
attr source receptionStateChanged
attr title "Radio reception state, vector"
54	425519 189986 0 1548326 0 803.421294988347 6535 1 3 13069 32671
54	16221047 40549 1548597 1927391 803.548813984135 1014.548813808545 1355 1 3 2711 6779
vector 55 FanetGpsr.host[2].wlan[0].radio transmissionState:vector ETV
attr interpolationmode sample-hold
attr source transmissionStateChanged
attr title "Radio transmission state, vector"
55	615505 33069 0 1533452 0 794.549224614161 1129 1 2 1693 2821
55	16261596 2326 1553107 1927224 805.925962198524 1014.396695458003 78 1 2 117 195
vector 56 FanetGpsr.host[3].wlan[0].radio receptionState:vector ETV
attr interpolationmode sample-hold
attr source receptionStateChanged
attr title "Radio reception state, vector"
56	648574 158019 0 1547233 0 802.549070883538 5431 1 3 10861 27151
56	16263922 48592 1548915 1926167 803.548969013244 1013.549122311204 1620 1 3 3240 8100
vector 57 FanetGpsr.host[3].wlan[0].radio transmissionState:vector ETV
attr interpolationmode sample-hold
attr source transmissionStateChanged
attr title "Radio transmission state, vector"
57	806593 4915 0 1545430 0 801.548341476027 171 1 2 256 426
57	16312514 2513 1563048 1907812 812.172617595639 1003.682890656073 84 1 2 126 210
vector 58 FanetGpsr.host[4].wlan[0].radio receptionState:vector ETV
attr interpolationmode sample-hold
attr source receptionStateChanged
attr title "Radio reception state, vector"
58	811508 202181 0 1547231 0 802.54907085989 6969 1 3 13937 34841
58	16315027 39253 1548803 1926058 803.548917443105 1013.549070852613 1310 1 3 2620 6550
vector 59 FanetGpsr.host[4].wlan[0].radio transmissionState:vector ETV
attr interpolationmode sample-hold
attr source transmissionStateChanged
attr title "Radio transmission state, vector"
59	1013689 13737 0 1547108 0 802.549018776439 471 1 2 706 1176
59	16354280 6171 1548886 1916886 803.548968109772 1008.801257394388 206 1 2 309 515
vector 60 FanetGpsr.host[5].wlan[0].radio receptionState:vector ETV
attr interpolationmode sample-hold
attr source receptionStateChanged
attr title "Radio reception state, vector"
60	1027426 56675 0 1548524 0 803.518616595391 1953 1 3 3905 9761
60	16360451 16899 1549936 1925108 804.282756791485 1013.145980993056 564 1 3 1128 2820
vector 61 FanetGpsr.host[5].wlan[0].radio transmissionState:vector ETV
attr interpolationmode sample-hold
attr source transmissionStateChanged
attr title "Radio transmission state, vector"
61	1084101 4608 0 1544187 0 800.724805910742 159 1 2 238 396
61	16377350 1259 1561266 1926834 811.0646618437 1014.140099355155 42 1 2 63 105
vector 62 FanetGpsr.host[6].wlan[0].radio receptionState:vector ETV
attr interpolationmode sample-hold
attr source receptionStateChanged
attr title "Radio reception state, vector"
62	1088709 62907 0 1548520 0 803.518616449576 2181 1 3 4361 10901
62	16378609 17840 1549938 1926843 804.282756932762 1014.140099814097 596 1 3 1192 2980
vector 63 FanetGpsr.host[6].wlan[0].radio transmissionState:vector ETV
attr interpolationmode sample-hold
attr source transmissionStateChanged
attr title "Radio transmission state, vector"
63	1151616 4584 0 1537838 0 797.276721574038 159 1 2 238 396
63	16396449 1196 1551921 1913436 805.519251467194 1006.851265417083 40 1 2 60 100
vector 64 FanetGpsr.host[7].wlan[0].radio receptionState:vector ETV
attr interpolationmode sample-hold
attr source receptionStateChanged
attr title "Radio reception state, vector"
64	1156200 38660 0 1547434 0 802.734379512598 1335 1 3 2669 6671
64	16397645 8694 1551785 1924605 805.504897694884 1012.956492783771 290 1 3 580 1450
vector 65 FanetGpsr.host[7].wlan[0].radio transmissionState:vector ETV
attr interpolationmode sample-hold
attr source transmissionStateChanged
attr title "Radio transmission state, vector"
65	1194860 4538 0 1530176 0 793.365114119974 157 1 2 235 391
65	16406339 1320 1550135 1927028 804.405585739297 1014.249529825198 44 1 2 66 110
vector 66 FanetGpsr.host[8].wlan[0].radio receptionState:vector ETV
attr interpolationmode sample-hold
attr source receptionStateChanged
attr title "Radio reception state, vector"
66	1199398 218232 0 1548183 0 803.369770870413 7513 1 3 15025 37561
66	16407659 52186 1548788 1926560 803.548917038189 1014.105659581596 1746 1 3 3492 8730
vector 67 FanetGpsr.host[8].wlan[0].radio transmissionState:vector ETV
attr interpolationmode sample-hold
attr source transmissionStateChanged
attr title "Radio transmission state, vector"
67	1417630 7572 0 1540939 0 798.673708744486 263 1 2 394 656
67	16459845 4360 1565722 1911781 813.320085490123 1006.070511076274 146 1 2 219 365
vector 68 FanetGpsr.host[9].wlan[0].radio receptionState:vector ETV
attr interpolationmode sample-hold
attr source receptionStateChanged
attr title "Radio reception state, vector"
68	1425202 213641 0 1548322 0 803.421294874523 7357 1 3 14713 36781
68	16464205 50635 1548603 1927400 803.548814310542 1014.548814395781 1689 1 3 3379 8449
vector 69 FanetGpsr.host[9].wlan[0].radio transmissionState:vector ETV
attr interpolationmode sample-hold
attr source transmissionStateChanged
attr title "Radio transmission state, vector"
69	1638843 39548 0 1527252 0 791.625053682964 1355 1 2 2032 3386
69	16514840 6385 1549470 1925699 803.901440510522 1013.548915729115 212 1 2 318 530
vector 70 FanetGpsr.host[10].wlan[0].radio receptionState:vector ETV
attr interpolationmode sample-hold
attr source receptionStateChanged
attr title "Radio reception state, vector"
70	1678391 140923 0 1547454 0 802.734379899823 4839 1 3 9677 24191
70	16521225 34066 1549184 1926588 803.607052411003 1014.105659950439 1136 1 3 2272 5680
vector 71 FanetGpsr.host[10].wlan[0].radio transmissionState:vector ETV
attr interpolationmode sample-hold
attr source transmissionStateChanged
attr title "Radio transmission state, vector"
71	1819314 4847 0 1532352 0 794.22832270446 169 1 2 253 421
71	16555291 1193 1557996 1918334 808.665115290786 1009.578967407017 40 1 2 60 100
vector 72 FanetGpsr.host[11].wlan[0].radio receptionState:vector ETV
attr interpolationmode sample-hold
attr source receptionStateChanged
attr title "Radio reception state, vector"
72	1824161 52977 0 1547733 0 803.03810498804 1821 1 3 3641 9101
72	16556484 17474 1549482 1927033 803.901441443749 1014.249530270968 584 1 3 1168 2920
vector 73 FanetGpsr.host[11].wlan[0].radio transmissionState:vector ETV
attr interpolationmode sample-hold
attr source transmissionStateChanged
attr title "Radio transmission state, vector"
73	1877138 4715 0 1544336 0 800.732875308627 163 1 2 244 406
73	16573958 1197 1565177 1924596 813.080586602447 1012.956492338001 40 1 2 60 100
vector 74 FanetGpsr.host[12].wlan[0].radio receptionState:vector ETV
attr interpolationmode sample-hold
attr source receptionStateChanged
attr title "Radio reception state, vector"
74	1881853 44681 0 1544373 0 800.732876233027 1555 1 3 3109 7771
74	16575155 9588 1549941 1927049 804.28275696726 1014.24953075708 320 1 3 640 1600
vector 75 FanetGpsr.host[12].wlan[0].radio transmissionState:vector ETV
attr interpolationmode sample-hold
attr source transmissionStateChanged
attr title "Radio transmission state, vector"
75	1926534 4836 0 1533866 0 794.842729266408 167 1 2 250 416
75	16584743 1317 1556746 1906882 808.400059188719 1003.455039926946 44 1 2 66 110
vector 76 FanetGpsr.host[13].wlan[0].radio receptionState:vector ETV
attr interpolationmode sample-hold
attr source receptionStateChanged
attr title "Radio reception state, vector"
76	1931370 211757 0 1548191 0 803.369770930487 7291 1 3 14581 36451
76	16586060 48300 1548792 1926580 803.54891726922 1014.105659666135 1612 1 3 3224 8060
vector 77 FanetGpsr.host[13].wlan[0].radio transmissionState:vector ETV
attr interpolationmode sample-hold
attr source transmissionStateChanged
attr title "Radio transmission state, vector"
77	2143127 4528 0 1538736 0 797.656092860873 157 1 2 235 391
77	16634360 2276 1552698 1920338 805.65268999664 1010.55851281448 76 1 2 114 190
vector 78 FanetGpsr.host[14].wlan[0].radio receptionState:vector ETV
attr interpolationmode sample-hold
attr source receptionStateChanged
attr title "Radio reception state, vector"
78	2147655 52491 0 1548512 0 803.518616337304 1809 1 3 3617 9041
78	16636636 14802 1549939 1926867 804.282756966277 1014.140100144997 494 1 3 988 2470
vector 79 FanetGpsr.host[14].wlan[0].radio transmissionState:vector ETV
attr interpolationmode sample-hold
attr source transmissionStateChanged
attr title "Radio transmission state, vector"
79	2200146 4587 0 1527876 0 792.268115471253 159 1 2 238 396
79	16651438 1317 1554730 1924944 806.644960010888 1013.111978874678 44 1 2 66 110
vector 80 FanetGpsr.host[15].wlan[0].radio receptionState:vector ETV
attr interpolationmode sample-hold
attr source receptionStateChanged
attr title "Radio reception state, vector"
80	2204733 41641 0 1544895 0 800.974837464226 1439 1 3 2877 7191
80	16652755 10189 1551927 1926863 805.519252156989 1014.140100126677 340 1 3 680 1700
vector 81 FanetGpsr.host[15].wlan[0].radio transmissionState:vector ETV
attr interpolationmode sample-hold
attr source transmissionStateChanged
attr title "Radio transmission state, vector"
81	2246374 4643 0 1547933 0 803.182946050679 161 1 2 241 401
81	16662944 1372 1566835 1921456 813.823594036513 1011.326373790532 46 1 2 69 115
vector 82 FanetGpsr.host[16].wlan[0].radio receptionState:vector ETV
attr interpolationmode sample-hold
attr source receptionStateChanged
attr title "Radio reception state, vector"
82	2251017 159740 0 1547229 0 802.549070713641 5499 1 3 10997 27491
82	16664316 34166 1548896 1926056 803.548968493151 1013.549070713004 1140 1 3 2280 5700
vector 83 FanetGpsr.host[16].wlan[0].radio transmissionState:vector ETV
attr interpolationmode sample-hold
attr source transmissionStateChanged
attr title "Radio transmission state, vector"
83	2410757 23604 0 1539604 0 798.23612298178 815 1 2 1222 2036
83	16698482 1138 1562476 1908683 811.570095694621 1004.250426625967 38 1 2 57 95
vector 84 FanetGpsr.host[17].wlan[0].radio receptionState:vector ETV
attr interpolationmode sample-hold
attr source receptionStateChanged
attr title "Radio reception state, vector"
84	2434361 180512 0 1547227 0 802.549070597368 6223 1 3 12445 31111
84	16699620 49161 1548907 1926171 803.548968816782 1013.549122521503 1640 1 3 3280 8200
vector 85 FanetGpsr.host[17].wlan[0].radio transmissionState:vector ETV
attr interpolationmode sample-hold
attr source transmissionStateChanged
attr title "Radio transmission state, vector"
85	2614873 4894 0 1534233 0 795.025950538135 171 1 2 256 426
85	16748781 1506 1556535 1925933 808.26654794859 1013.549018810585 50 1 2 75 125
vector 86 FanetGpsr.host[18].wlan[0].radio receptionState:vector ETV
attr interpolationmode sample-hold
attr source receptionStateChanged
attr title "Radio reception state, vector"
86	2619767 24192 0 1548508 0 803.518616220373 835 1 3 1669 4171
86	16750287 8331 1551310 1926709 805.082803537798 1014.121222897188 278 1 3 556 1390
vector 87 FanetGpsr.host[18].wlan[0].radio transmissionState:vector ETV
attr interpolationmode sample-hold
attr source transmissionStateChanged
attr title "Radio transmission state, vector"
87	2643959 4591 0 1534635 0 795.249757951263 159 1 2 238 396
87	16758618 1257 1558426 1904123 809.242312421556 1001.952440310874 42 1 2 63 105
vector 88 FanetGpsr.host[19].wlan[0].radio receptionState:vector ETV
attr interpolationmode sample-hold
attr source receptionStateChanged
attr title "Radio reception state, vector"
88	2648550 188629 0 1548354 0 803.421295483913 6483 1 3 12965 32411
88	16759875 46594 1548600 1927393 803.54881418136 1014.548814179197 1555 1 3 3111 7779
vector 89 FanetGpsr.host[19].wlan[0].radio transmissionState:vector ETV
attr interpolationmode sample-hold
attr source transmissionStateChanged
attr title "Radio transmission state, vector"
89	2837179 5042 0 1542590 0 799.750065347782 175 1 2 262 436
89	16806469 1315 1565877 1920492 813.33097988041 1010.57163397842 44 1 2 66 110
vector 90 FanetGpsr.host[20].wlan[0].radio receptionState:vector ETV
attr interpolationmode sample-hold
attr source receptionStateChanged
attr title "Radio reception state, vector"
90	2842221 106841 0 1547119 0 802.549019484831 3677 1 3 7353 18381
90	16807784 24031 1548908 1926175 803.548968818164 1013.549122594484 802 1 3 1604 4010
vector 91 FanetGpsr.host[20].wlan[0].radio transmissionState:vector ETV
attr interpolationmode sample-hold
attr source transmissionStateChanged
attr title "Radio transmission state, vector"
91	2949062 39037 0 1547222 0 802.549070151498 1343 1 2 2014 3356
91	16831815 11203 1548996 1926049 803.549019484831 1013.549070011869 374 1 2 561 935
vector 92 FanetGpsr.host[21].wlan[0].radio receptionState:vector ETV
attr interpolationmode sample-hold
attr source receptionStateChanged
attr title "Radio reception state, vector"
92	2988099 180261 0 1547450 0 802.734379898375 6221 1 3 12441 31101
92	16843018 21012 1549186 1926159 803.607052596585 1013.54912188727 700 1 3 1400 3500
vector 93 FanetGpsr.host[21].wlan[0].radio transmissionState:vector ETV
attr interpolationmode sample-hold
attr source transmissionStateChanged
attr title "Radio transmission state, vector"
93	3168360 16354 0 1543228 0 800.478071279962 567 1 2 850 1416
93	16864030 1322 1568666 1917383 814.717869097367 1009.308605485732 44 1 2 66 110
vector 94 FanetGpsr.host[22].wlan[0].radio receptionState:vector ETV
attr interpolationmode sample-hold
attr source receptionStateChanged
attr title "Radio reception state, vector"
94	3184714 220648 0 1548195 0 803.369770963731 7609 1 3 15217 38041
94	16865352 49862 1548787 1926564 803.548917033778 1014.105659637431 1664 1 3 3328 8320
vector 95 FanetGpsr.host[22].wlan[0].radio transmissionState:vector ETV
attr interpolationmode sample-hold
attr source transmissionStateChanged
attr title "Radio transmission state, vector"
95	3405362 27831 0 1539756 0 798.28414608552 945 1 2 1417 2361
95	16915214 4584 1564813 1925816 812.909867146518 1013.548967329043 152 1 2 228 380
vector 96 FanetGpsr.host[23].wlan[0].radio receptionState:vector ETV
attr interpolationmode sample-hold
attr source receptionStateChanged
attr title "Radio reception state, vector"
96	3433193 191997 0 1548346 0 803.421295355932 6613 1 3 13225 33061
96	16919798 37277 1548695 1926568 803.548865968731 1014.105659650816 1244 1 3 2488 6220
vector 97 FanetGpsr.host[23].wlan[0].radio transmissionState:vector ETV
attr interpolationmode sample-hold
attr source transmissionStateChanged
attr title "Radio transmission state, vector"
97	3625190 40002 0 1546998 0 802.548967302065 1383 1 2 2074 3456
97	16957075 6211 1548776 1920860 803.548916635398 1011.01213626857 208 1 2 312 520
vector 98 FanetGpsr.host[24].wlan[0].radio receptionState:vector ETV
attr interpolationmode sample-hold
attr source receptionStateChanged
attr title "Radio reception state, vector"
98	3665192 29780 0 1547934 0 803.182946447461 1021 1 3 2041 5101
98	16963286 11141 1551931 1926871 805.519252294374 1014.140100197002 372 1 3 744 1860
vector 99 FanetGpsr.host[24].wlan[0].radio transmissionState:vector ETV
attr interpolationmode sample-hold
attr source transmissionStateChanged
attr title "Radio transmission state, vector"
99	3694972 4760 0 1539376 0 798.043483442766 165 1 2 247 411
99	16974427 1320 1558566 1910026 809.280391128269 1004.750565351591 44 1 2 66 110
vector 100 FanetGpsr.host[25].wlan[0].radio receptionState:vector ETV
attr interpolationmode sample-hold
attr source receptionStateChanged
attr title "Radio reception state, vector"
100	3699732 242551 0 1548338 0 803.421295221286 8043 1 3 16085 40211
100	16975747 42838 1548692 1925823 803.548865834085 1013.548967843293 1384 1 3 2768 6920
vector 101 FanetGpsr.host[25].wlan[0].radio transmissionState:vector ETV
attr interpolationmode sample-hold
attr source transmissionStateChanged
attr title "Radio transmission state, vector"
101	3942283 21169 0 1533677 0 794.744656091229 707 1 2 1060 1766
101	17018585 2790 1557214 1926555 808.508810454514 1014.105659123181 90 1 2 135 225
vector 102 FanetGpsr.host[26].wlan[0].radio receptionState:vector ETV
attr interpolationmode sample-hold
attr source receptionStateChanged
attr title "Radio reception state, vector"
102	3963452 226865 0 1548334 0 803.421295205195 7539 1 3 15077 37691
102	17021375 46330 1548691 1926556 803.548865817994 1014.105659303324 1494 1 3 2988 7470
vector 103 FanetGpsr.host[26].wlan[0].radio transmissionState:vector ETV
attr interpolationmode sample-hold
attr source transmissionStateChanged
attr title "Radio transmission state, vector"
103	4190317 21264 0 1541406 0 799.025958600124 699 1 2 1048 1746
103	17067705 1296 1564674 1919014 812.905042958443 1009.862576895994 42 1 2 63 105
vector 104 FanetGpsr.host[27].wlan[0].radio receptionState:vector ETV
attr interpolationmode sample-hold
attr source receptionStateChanged
attr title "Radio reception state, vector"
104	4211581 29988 0 1544522 0 800.805021387412 997 1 3 1993 4981
104	17069001 10513 1551308 1924949 805.082803096588 1013.111979451643 340 1 3 680 1700
vector 105 FanetGpsr.host[27].wlan[0].radio transmissionState:vector ETV
attr interpolationmode sample-hold
attr source transmissionStateChanged
attr title "Radio transmission state, vector"
105	4241569 4932 0 1548499 0 803.518615717206 165 1 2 247 411
105	17079514 1299 1568873 1926700 814.854527416173 1014.121222491981 42 1 2 63 105
vector 106 FanetGpsr.host[28].wlan[0].radio receptionState:vector ETV
attr interpolationmode sample-hold
attr source receptionStateChanged
attr title "Radio reception state, vector"
106	4246501 88248 0 1547765 0 803.03810522138 2959 1 3 5917 14791
106	17080813 11522 1549946 1927029 804.282757241111 1014.249530001937 372 1 3 744 1860
vector 107 FanetGpsr.host[28].wlan[0].radio transmissionState:vector ETV
attr interpolationmode sample-hold
attr source transmissionStateChanged
attr title "Radio transmission state, vector"
107	4334749 4526 0 1529781 0 793.139658549942 151 1 2 226 376
107	17092335 1238 1553294 1904893 806.031478114895 1002.160635886855 40 1 2 60 100
vector 108 FanetGpsr.host[29].wlan[0].radio receptionState:vector ETV
attr interpolationmode sample-hold
attr source receptionStateChanged
attr title "Radio reception state, vector"
108	4339275 213559 0 1548330 0 803.421295088399 7097 1 3 14193 35481
108	17093573 42849 1548604 1927398 803.548814407375 1014.548814287424 1383 1 3 2767 6919
vector 109 FanetGpsr.host[29].wlan[0].radio transmissionState:vector ETV
attr interpolationmode sample-hold
attr source transmissionStateChanged
attr title "Radio transmission state, vector"
109	4552834 10991 0 1546304 0 801.880677510657 377 1 2 565 941
109	17136422 2910 1557047 1915719 808.444822405 1008.377290254597 94 1 2 141 235
vector 110 FanetGpsr.host[30].wlan[0].radio receptionState:vector ETV
attr interpolationmode sample-hold
attr source receptionStateChanged
attr title "Radio reception state, vector"
110	4563825 196877 0 1546787 0 802.548864943721 6551 1 3 13101 32751
110	17139332 40754 1548602 1927397 803.548814277054 1014.548814260485 1315 1 3 2631 6579
vector 111 FanetGpsr.host[30].wlan[0].radio transmissionState:vector ETV
attr interpolationmode sample-hold
attr source transmissionStateChanged
attr title "Radio transmission state, vector"
111	4760702 4581 0 1547708 0 803.038104312163 153 1 2 229 381
111	17180086 1242 1565541 1918713 813.258564118292 1009.813041724863 40 1 2 60 100
vector 112 FanetGpsr.host[31].wlan[0].radio receptionState:vector ETV
attr interpolationmode sample-hold
attr source receptionStateChanged
attr title "Radio reception state, vector"
112	4765283 29132 0 1548516 0 803.518616359565 975 1 3 1949 4871
112	17181328 7492 1551312 1926713 805.0828036951 1014.121223063234 242 1 3 484 1210
vector 113 FanetGpsr.host[31].wlan[0].radio transmissionState:vector ETV
attr interpolationmode sample-hold
attr source transmissionStateChanged
attr title "Radio transmission state, vector"
113	4794415 4931 0 1544513 0 800.805020745053 165 1 2 247 411
113	17188820 1241 1569460 1924413 815.514565319757 1012.824434470993 40 1 2 60 100
vector 114 FanetGpsr.host[32].wlan[0].radio receptionState:vector ETV
attr interpolationmode sample-hold
attr source receptionStateChanged
attr title "Radio reception state, vector"
114	4799346 202535 0 1547713 0 803.038104598675 6733 1 3 13465 33661
114	17190061 42963 1548598 1927394 803.548814142702 1014.548814201766 1385 1 3 2771 6929
vector 115 FanetGpsr.host[32].wlan[0].radio transmissionState:vector ETV
attr interpolationmode sample-hold
attr source transmissionStateChanged
attr title "Radio transmission state, vector"
115	5001881 7631 0 1538948 0 797.78612014898 255 1 2 382 636
115	17233024 1482 1556895 1924030 808.43851992162 1012.664630581298 48 1 2 72 120
vector 116 FanetGpsr.host[33].wlan[0].radio receptionState:vector ETV
attr interpolationmode sample-hold
attr source receptionStateChanged
attr title "Radio reception state, vector"
116	5009512 24369 0 1547938 0 803.1829465326 811 1 3 1621 4051
116	17234506 5875 1551314 1921461 805.082803818157 1011.32637435858 190 1 3 380 950
vector 117 FanetGpsr.host[33].wlan[0].radio transmissionState:vector ETV
attr interpolationmode sample-hold
attr source transmissionStateChanged
attr title "Radio transmission state, vector"
117	5033881 4927 0 1542427 0 799.666595522454 165 1 2 247 411
117	17240381 1299 1567049 1917056 813.988771147562 1008.895476638012 42 1 2 63 105
vector 118 FanetGpsr.host[34].wlan[0].radio receptionState:vector ETV
attr interpolationmode sample-hold
attr source receptionStateChanged
attr title "Radio reception state, vector"
118	5038808 106060 0 1547446 0 802.734379884548 3529 1 3 7057 17641
118	17241680 35559 1549187 1926062 803.607052700405 1013.549070969843 1148 1 3 2296 5740
vector 119 FanetGpsr.host[34].wlan[0].radio transmissionState:vector ETV
attr interpolationmode sample-hold
attr source transmissionStateChanged
attr title "Radio transmission state, vector"
119	5144868 4983 0 1534446 0 795.153746551969 167 1 2 250 416
119	17277239 4924 1551473 1926158 805.166372426317 1013.54912163651 158 1 2 237 395
vector 120 FanetGpsr.host[35].wlan[0].radio receptionState:vector ETV
attr interpolationmode sample-hold
attr source receptionStateChanged
attr title "Radio reception state, vector"
120	5149851 29281 0 1547749 0 803.038105156797 971 1 3 1941 4851
120	17282163 11144 1550138 1927041 804.40558623694 1014.24953033656 360 1 3 720 1800
vector 121 FanetGpsr.host[35].wlan[0].radio transmissionState:vector ETV
attr interpolationmode sample-hold
attr source transmissionStateChanged
attr title "Radio transmission state, vector"
121	5179132 4815 0 1540769 0 798.593907876077 161 1 2 241 401
121	17293307 1298 1551782 1922535 805.504897197241 1011.573965103037 42 1 2 63 105
vector 122 FanetGpsr.host[36].wlan[0].radio receptionState:vector ETV
attr interpolationmode sample-hold
attr source receptionStateChanged
attr title "Radio reception state, vector"
122	5183947 135396 0 1547223 0 802.549070566644 4495 1 3 8989 22471
122	17294605 32170 1548904 1926050 803.548968696003 1013.549070398042 1040 1 3 2080 5200
vector 123 FanetGpsr.host[36].wlan[0].radio transmissionState:vector ETV
attr interpolationmode sample-hold
attr source transmissionStateChanged
attr title "Radio transmission state, vector"
123	5319343 5263 0 1544658 0 800.851919311704 177 1 2 265 441
123	17326775 1479 1559616 1903913 809.985747875182 1001.783230796598 48 1 2 72 120
vector 124 FanetGpsr.host[37].wlan[0].radio receptionState:vector ETV
attr interpolationmode sample-hold
attr source receptionStateChanged
attr title "Radio reception state, vector"
124	5324606 210744 0 1548318 0 803.421294687067 7007 1 3 14013 35031
124	17328254 44435 1548675 1927253 803.548865299866 1014.396696196165 1436 1 3 2872 7180
vector 125 FanetGpsr.host[37].wlan[0].radio transmissionState:vector ETV
attr interpolationmode sample-hold
attr source transmissionStateChanged
attr title "Radio transmission state, vector"
125	5535350 9739 0 1548150 0 803.36976998779 323 1 2 484 806
125	17372689 2354 1561093 1924231 810.996391405353 1012.736364023899 76 1 2 114 190
vector 126 FanetGpsr.host[38].wlan[0].radio receptionState:vector ETV
attr interpolationmode sample-hold
attr source receptionStateChanged
attr title "Radio reception state, vector"
126	5545089 48466 0 1544361 0 800.732876028765 1621 1 3 3241 8101
126	17375043 6076 1550139 1927037 804.405586279201 1014.24953032639 196 1 3 392 980
vector 127 FanetGpsr.host[38].wlan[0].radio transmissionState:vector ETV
attr interpolationmode sample-hold
attr source transmissionStateChanged
attr title "Radio transmission state, vector"
127	5593555 4754 0 1547429 0 802.734378972694 159 1 2 238 396
127	17381119 1363 1561737 1913607 811.465306018944 1006.909018294558 44 1 2 66 110
vector 128 FanetGpsr.host[39].wlan[0].radio receptionState:vector ETV
attr interpolationmode sample-hold
attr source receptionStateChanged
attr title "Radio reception state, vector"
128	5598309 198136 0 1548151 0 803.369770164353 6575 1 3 13149 32871
128	17382482 45532 1548605 1927399 803.548814456636 1014.548814304885 1471 1 3 2943 7359
vector 129 FanetGpsr.host[39].wlan[0].radio transmissionState:vector ETV
attr interpolationmode sample-hold
attr source transmissionStateChanged
attr title "Radio transmission state, vector"
129	5796445 8622 0 1548317 0 803.421294510504 285 1 2 427 711
129	17428014 7696 1548668 1915408 803.548865123303 1008.301891808537 250 1 2 375 625
vector 130 FanetGpsr.host[40].wlan[0].radio receptionState:vector ETV
attr interpolationmode sample-hold
attr source receptionStateChanged
attr title "Radio reception state, vector"
130	5805067 196207 0 1548342 0 803.421295312115 6525 1 3 13049 32621
130	17435710 45222 1548601 1927395 803.548814244542 1014.548814240697 1463 1 3 2927 7319
vector 131 FanetGpsr.host[40].wlan[0].radio transmissionState:vector ETV
attr interpolationmode sample-hold
attr source transmissionStateChanged
attr title "Radio transmission state, vector"
131	6001274 4992 0 1545152 0 801.28490106263 167 1 2 250 416
131	17480932 1363 1560078 1925322 810.385393633041 1013.308989969683 44 1 2 66 110
vector 132 FanetGpsr.host[41].wlan[0].radio receptionState:vector ETV
attr interpolationmode sample-hold
attr source receptionStateChanged
attr title "Radio reception state, vector"
132	6006266 186049 0 1547962 0 803.182946950611 6187 1 3 12373 30931
132	17482295 33449 1548596 1927392 803.548813867398 1014.548814053489 1081 1 3 2163 5409
vector 133 FanetGpsr.host[41].wlan[0].radio transmissionState:vector ETV
attr interpolationmode sample-hold
attr source transmissionStateChanged
attr title "Radio transmission state, vector"
133	6192315 4879 0 1544846 0 800.974836564294 163 1 2 244 406
133	17515744 1361 1553530 1915109 806.23678378295 1008.009122408132 44 1 2 66 110
vector 134 FanetGpsr.host[42].wlan[0].radio receptionState:vector ETV
attr interpolationmode sample-hold
attr source receptionStateChanged
attr title "Radio reception state, vector"
134	6197194 116028 0 1547717 0 803.038104801607 3883 1 3 7765 19411
134	17517105 18755 1549935 1927045 804.28275669174 1014.249530701567 606 1 3 1212 3030
vector 135 FanetGpsr.host[42].wlan[0].radio transmissionState:vector ETV
attr interpolationmode sample-hold
attr source transmissionStateChanged
attr title "Radio transmission state, vector"
135	6313222 4940 0 1539101 0 797.795783358769 165 1 2 247 411
135	17535860 1357 1563211 1909078 812.212851454974 1004.5413035207 44 1 2 66 110
vector 136 FanetGpsr.host[43].wlan[0].radio receptionState:vector ETV
attr interpolationmode sample-hold
attr source receptionStateChanged
attr title "Radio reception state, vector"
136	6318162 105120 0 1548528 0 803.518616601267 3511 1 3 7021 17551
136	17537217 18446 1549934 1926835 804.282756622114 1014.140099630676 596 1 3 1192 2980
vector 137 FanetGpsr.host[43].wlan[0].radio transmissionState:vector ETV
attr interpolationmode sample-hold
attr source transmissionStateChanged
attr title "Radio transmission state, vector"
137	6423282 5036 0 1529932 0 793.174316778916 169 1 2 253 421
137	17555663 1303 1555437 1912385 807.483028804416 1006.441227188936 42 1 2 63 105
vector 138 FanetGpsr.host[44].wlan[0].radio receptionState:vector ETV
attr interpolationmode sample-hold
attr source receptionStateChanged
attr title "Radio reception state, vector"
138	6428318 167552 0 1547225 0 802.549070576575 5573 1 3 11145 27861
138	17556966 46190 1548906 1926165 803.548968745578 1013.549122274645 1494 1 3 2988 7470
vector 139 FanetGpsr.host[44].wlan[0].radio transmissionState:vector ETV
attr interpolationmode sample-hold
attr source transmissionStateChanged
attr title "Radio transmission state, vector"
139	6595870 5140 0 1539961 0 798.391723598492 173 1 2 259 431
139	17603156 6331 1550912 1921238 804.581565503031 1011.198964014788 204 1 2 306 510
vector 140 FanetGpsr.host[45].wlan[0].radio receptionState:vector ETV
attr interpolationmode sample-hold
attr source receptionStateChanged
attr title "Radio reception state, vector"
140	6601010 203565 0 1547235 0 802.54907112424 6779 1 3 13557 33891
140	17609487 33881 1549019 1926163 803.549020457573 1013.549122148571 1092 1 3 2184 5460
vector 141 FanetGpsr.host[45].wlan[0].radio transmissionState:vector ETV
attr interpolationmode sample-hold
attr source transmissionStateChanged
attr title "Radio transmission state, vector"
141	6804575 5028 0 1524916 0 790.736661705328 169 1 2 253 421
141	17643368 2417 1549183 1910343 803.607052122244 1005.126877402093 78 1 2 117 195
vector 142 FanetGpsr.host[46].wlan[0].radio receptionState:vector ETV
attr interpolationmode sample-hold
attr source receptionStateChanged
attr title "Radio reception state, vector"
142	6809603 118051 0 1547958 0 803.182946937363 3939 1 3 7877 19691
142	17645785 17514 1549933 1926839 804.28275654585 1014.140099682612 566 1 3 1132 2830
vector 143 FanetGpsr.host[46].wlan[0].radio transmissionState:vector ETV
attr interpolationmode sample-hold
attr source transmissionStateChanged
attr title "Radio transmission state, vector"
143	6927654 4794 0 1541216 0 798.929081538831 161 1 2 241 401
143	17663299 1362 1554932 1925103 806.770779448562 1013.145980665599 44 1 2 66 110
vector 144 FanetGpsr.host[47].wlan[0].radio receptionState:vector ETV
attr interpolationmode sample-hold
attr source receptionStateChanged
attr title "Radio reception state, vector"
144	6932448 117688 0 1547950 0 803.182946756999 3921 1 3 7841 19601
144	17664661 34101 1548599 1927396 803.548814154812 1014.548814244902 1103 1 3 2207 5519
vector 145 FanetGpsr.host[47].wlan[0].radio transmissionState:vector ETV
attr interpolationmode sample-hold
attr source transmissionStateChanged
attr title "Radio transmission state, vector"
145	7050136 4868 0 1533996 0 794.845417051712 163 1 2 244 406
145	17698762 1303 1553844 1921070 806.303687281904 1011.152696356312 42 1 2 63 105
vector 146 FanetGpsr.host[48].wlan[0].radio receptionState:vector ETV
attr interpolationmode sample-hold
attr source receptionStateChanged
attr title "Radio reception state, vector"
146	7055004 50972 0 1548500 0 803.518615936496 1703 1 3 3405 8511
146	17700065 9848 1551932 1926701 805.519252304204 1014.121222743941 318 1 3 636 1590
vector 147 FanetGpsr.host[48].wlan[0].radio transmissionState:vector ETV
attr interpolationmode sample-hold
attr source transmissionStateChanged
attr title "Radio transmission state, vector"
147	7105976 4559 0 1537498 0 797.132244513511 153 1 2 229 381
147	17709913 1362 1551307 1918876 805.082802877298 1009.824950621136 44 1 2 66 110
vector 148 FanetGpsr.host[49].wlan[0].radio receptionState:vector ETV
attr interpolationmode sample-hold
attr source receptionStateChanged
attr title "Radio reception state, vector"
148	7110535 47710 0 1548504 0 803.518615980134 1593 1 3 3185 7961
148	17711275 9284 1551309 1926705 805.08280325551 1014.121222755635 300 1 3 600 1500
vector 149 FanetGpsr.host[49].wlan[0].radio transmissionState:vector ETV
attr interpolationmode sample-hold
attr source transmissionStateChanged
attr title "Radio transmission state, vector"
149	7158245 4985 0 1543045 0 800.36817070856 167 1 2 250 416
149	17720559 1240 1564222 1918567 812.551077052489 1009.758531123542 40 1 2 60 100
vector 150 FanetGpsr.host[0].app[0] pingTxSeq:vector ETV
attr interpolationmode none
attr title "ping tx seq, vector"
150	7163230 25719 266 1548592 0.548813502304 803.548813502304 804 0 803 322806 172916414
150	17721799 6993 1550329 1927387 804.548813502304 1014.548813502304 211 804 1014 191799 175128101
vector 151 FanetGpsr.host[15].wlan[0].mac rcvdPkFromHl:vector(packetBytes) ETV
attr interpolationmode none
attr source packetReceivedFromUpper
attr title "packets received from higher layer, vector(packetBytes)"
151	7188949 2482 2644 1547882 5.256627134513 803.182923384012 80 40 136 3548 186224
151	17728792 734 1566834 1921405 813.823594036513 1011.326351123865 23 40 40 920 36800
vector 152 FanetGpsr.host[15].wlan[0].mac.queue packetPushed:vector(packetBytes) ETV
attr interpolationmode none
attr title "packet pushed, vector(packetBytes)"
152	7191431 2482 2644 1547882 5.256627134513 803.182923384012 80 40 136 3548 186224
152	17729526 734 1566834 1921405 813.823594036513 1011.326351123865 23 40 40 920 36800
vector 153 FanetGpsr.host[15].wlan[0].mac.queue queueLength:vector ETV
attr interpolationmode sample-hold
attr source "count(packetPushed) - count(packetPopped) - count(packetRemoved) - count(packetDropped)"
attr title "queue length, vector"
153	7193913 4796 2644 1547882 5.256627134513 803.182923384012 160 0 1 80 80
153	17730260 1422 1566834 1921405 813.823594036513 1011.326351123865 46 0 1 23 23
vector 154 FanetGpsr.host[15].wlan[0].mac.queue packetPopped:vector(packetBytes) ETV
attr interpolationmode none
attr title "packet popped, vector(packetBytes)"
154	7198709 2482 2644 1547882 5.256627134513 803.182923384012 80 40 136 3548 186224
154	17731682 734 1566834 1921405 813.823594036513 1011.326351123865 23 40 40 920 36800
vector 155 FanetGpsr.host[15].wlan[0].mac.queue queueingTime:vector ETV
attr interpolationmode none
attr source queueingTime(packetPopped)
attr title "queueing times, vector"
attr unit s
155	7201191 2398 2644 1547882 5.256627134513 803.182923384012 80 0 0 0 0
155	17732416 711 1566834 1921405 813.823594036513 1011.326351123865 23 0 0 0 0
vector 156 FanetGpsr.host[15].wlan[0].mac sentDownPk:vector(packetBytes) ETV
attr interpolationmode none
attr source packetSentToLower
attr title "packets sent to lower layer, vector(packetBytes)"
156	7203589 2482 2644 1547882 5.256627134513 803.182923384012 80 56 152 4828 320240
156	17733127 734 1566834 1921405 813.823594036513 1011.326351123865 23 56 56 1288 72128
vector 157 FanetGpsr.host[5].wlan[0].mac rcvdPkFromLl:vector(packetBytes) ETV
attr interpolationmode none
attr source packetReceivedFromLower
attr title "packets received from lower layer, vector(packetBytes)"
157	7206071 30315 2697 1548525 5.256650106649 803.518616595391 976 56 152 56708 3466384
157	17733861 9012 1549996 1925109 804.282779458152 1013.145980993056 282 56 56 15792 884352
vector 158 FanetGpsr.host[5].wlan[0].mac passedUpPk:vector(packetBytes) ETV
attr interpolationmode none
attr source packetSentToUpper
attr title "packets passed to higher layer, vector(packetBytes)"
158	7236386 29597 2697 1548525 5.256650106649 803.518616595391 952 40 40 38080 1523200
158	17742873 9012 1549996 1925109 804.282779458152 1013.145980993056 282 40 40 11280 451200
vector 159 FanetGpsr.host[6].wlan[0].mac rcvdPkFromLl:vector(packetBytes) ETV
attr interpolationmode none
attr source packetReceivedFromLower
attr title "packets received from lower layer, vector(packetBytes)"
159	7265983 33703 2701 1548521 5.256650293544 803.518616449576 1090 56 152 69980 5173936
159	17751885 9516 1550004 1926844 804.282779599429 1014.140099814097 298 56 56 16688 934528
vector 160 FanetGpsr.host[6].wlan[0].mac passedUpPk:vector(packetBytes) ETV
attr interpolationmode none
attr source packetSentToUpper
attr title "packets passed to higher layer, vector(packetBytes)"
160	7299686 30636 2701 1548521 5.256650293544 803.518616449576 986 40 124 39608 1605152
160	17761401 9516 1550004 1926844 804.282779599429 1014.140099814097 298 40 40 11920 476800
vector 161 FanetGpsr.host[49].wlan[0].mac rcvdPkFromLl:vector(packetBytes) ETV
attr interpolationmode none
attr source packetReceivedFromLower
attr title "packets received from lower layer, vector(packetBytes)"
161	7330322 24655 2705 1548505 5.256650444683 803.518615980134 796 56 152 45860 2750224
161	17770917 4793 1551363 1926706 805.082825922177 1014.121222755635 150 56 56 8400 470400
vector 162 FanetGpsr.host[49].wlan[0].mac passedUpPk:vector(packetBytes) ETV
attr interpolationmode none
attr source packetSentToUpper
attr title "packets passed to higher layer, vector(packetBytes)"
162	7354977 24271 2705 1548505 5.256650444683 803.518615980134 783 40 124 31488 1280352
162	17775710 4793 1551363 1926706 805.082825922177 1014.121222755635 150 40 40 6000 240000
vector 163 FanetGpsr.host[24].wlan[0].mac rcvdPkFromLl:vector(packetBytes) ETV
attr interpolationmode none
attr source packetReceivedFromLower
attr title "packets received from lower layer, vector(packetBytes)"
163	7379248 15919 2709 1547935 5.256650450416 803.182946447461 510 56 152 29160 1718112
163	17780503 5942 1552009 1926872 805.519274961041 1014.140100197002 186 56 56 10416 583296
vector 164 FanetGpsr.host[24].wlan[0].mac passedUpPk:vector(packetBytes) ETV
attr interpolationmode none
attr source packetSentToUpper
attr title "packets passed to higher layer, vector(packetBytes)"
164	7395167 15829 2709 1547935 5.256650450416 803.182946447461 507 40 124 20616 866304
164	17786445 5942 1552009 1926872 805.519274961041 1014.140100197002 186 40 40 7440 297600
vector 165 FanetGpsr.host[48].wlan[0].mac rcvdPkFromLl:vector(packetBytes) ETV
attr interpolationmode none
attr source packetReceivedFromLower
attr title "packets received from lower layer, vector(packetBytes)"
165	7410996 26366 2713 1548501 5.25665049347 803.518615936496 851 56 152 49528 3037952
165	17792387 5086 1552013 1926702 805.519274970871 1014.121222743941 159 56 56 8904 498624
vector 166 FanetGpsr.host[48].wlan[0].mac passedUpPk:vector(packetBytes) ETV
attr interpolationmode none
attr source packetSentToUpper
attr title "packets passed to higher layer, vector(packetBytes)"
166	7437362 25739 2713 1548501 5.25665049347 803.518615936496 830 40 124 33284 1341776
166	17797473 5086 1552013 1926702 805.519274970871 1014.121222743941 159 40 40 6360 254400
vector 167 FanetGpsr.host[43].wlan[0].mac rcvdPkFromLl:vector(packetBytes) ETV
attr interpolationmode none
attr source packetReceivedFromLower
attr title "packets received from lower layer, vector(packetBytes)"
167	7463101 54978 2717 1548529 5.256650498103 803.518616601267 1755 56 152 150804 15800688
167	17802559 9516 1549988 1926836 804.282779288781 1014.140099630676 298 56 56 16688 934528
vector 168 FanetGpsr.host[43].wlan[0].mac passedUpPk:vector(packetBytes) ETV
attr interpolationmode none
attr source packetSentToUpper
attr title "packets passed to higher layer, vector(packetBytes)"
168	7518079 35207 2717 1548529 5.256650498103 803.518616601267 1133 40 124 45572 1854128
168	17812075 9516 1549988 1926836 804.282779288781 1014.140099630676 298 40 40 11920 476800
vector 169 FanetGpsr.host[33].wlan[0].mac rcvdPkFromLl:vector(packetBytes) ETV
attr interpolationmode none
attr source packetReceivedFromLower
attr title "packets received from lower layer, vector(packetBytes)"
169	7553286 12595 2721 1547939 5.256650629571 803.1829465326 405 56 152 23448 1421760
169	17821591 3027 1551383 1921462 805.082826484824 1011.32637435858 95 56 56 5320 297920
vector 170 FanetGpsr.host[33].wlan[0].mac passedUpPk:vector(packetBytes) ETV
attr interpolationmode none
attr source packetSentToUpper
attr title "packets passed to higher layer, vector(packetBytes)"
170	7565881 12385 2721 1547939 5.256650629571 803.1829465326 398 40 124 16088 664352
170	17824618 3027 1551383 1921462 805.082826484824 1011.32637435858 95 40 40 3800 152000
vector 171 FanetGpsr.host[46].wlan[0].mac rcvdPkFromLl:vector(packetBytes) ETV
attr interpolationmode none
attr source packetReceivedFromLower
attr title "packets received from lower layer, vector(packetBytes)"
171	7578266 61859 2725 1547959 5.256650718437 803.182946937363 1969 56 152 181940 20225584
171	17827645 9036 1549984 1926840 804.282779212517 1014.140099682612 283 56 56 15848 887488
vector 172 FanetGpsr.host[46].wlan[0].mac passedUpPk:vector(packetBytes) ETV
attr interpolationmode none
attr source packetSentToUpper
attr title "packets passed to higher layer, vector(packetBytes)"
172	7640125 34731 2725 1547959 5.256650718437 803.182946937363 1119 40 136 45024 1834848
172	17836681 9036 1549984 1926840 804.282779212517 1014.140099682612 283 40 40 11320 452800
vector 173 FanetGpsr.host[47].wlan[0].mac rcvdPkFromLl:vector(packetBytes) ETV
attr interpolationmode none
attr source packetReceivedFromLower
attr title "packets received from lower layer, vector(packetBytes)"
173	7674856 61652 2729 1547951 5.256650764748 803.182946756999 1960 56 152 184388 20777104
173	17845717 17832 1548653 1927266 803.548864821479 1014.396696355345 551 56 140 50008 5481728
vector 174 FanetGpsr.host[47].wlan[0].mac passedUpPk:vector(packetBytes) ETV
attr interpolationmode none
attr source packetSentToUpper
attr title "packets passed to higher layer, vector(packetBytes)"
174	7736508 33383 2729 1547951 5.256650764748 803.182946756999 1074 40 124 43128 1745952
174	17863549 10321 1550000 1927266 804.282779492759 1014.396696355345 323 40 40 12920 516800
vector 175 FanetGpsr.host[31].wlan[0].mac rcvdPkFromLl:vector(packetBytes) ETV
attr interpolationmode none
attr source packetReceivedFromLower
attr title "packets received from lower layer, vector(packetBytes)"
175	7769891 15058 2733 1548517 5.256650788089 803.518616359565 487 56 152 28556 1781200
175	17873870 3870 1551375 1926714 805.082826361767 1014.121223063234 121 56 56 6776 379456
vector 176 FanetGpsr.host[31].wlan[0].mac passedUpPk:vector(packetBytes) ETV
attr interpolationmode none
attr source packetSentToUpper
attr title "packets passed to higher layer, vector(packetBytes)"
176	7784949 14668 2733 1548517 5.256650788089 803.518616359565 474 40 124 19128 785952
176	17877740 3870 1551375 1926714 805.082826361767 1014.121223063234 121 40 40 4840 193600
vector 177 FanetGpsr.host[31].wlan[0].mac rcvdPkFromHl:vector(packetBytes) ETV
attr interpolationmode none
attr source packetReceivedFromUpper
attr title "packets received from higher layer, vector(packetBytes)"
177	7799617 2546 3238 1544462 6.175318574533 800.804998078386 82 40 124 3448 158752
177	17881610 640 1569459 1924362 815.514565319757 1012.824411804326 20 40 40 800 32000
vector 178 FanetGpsr.host[31].wlan[0].mac.queue packetPushed:vector(packetBytes) ETV
attr interpolationmode none
attr title "packet pushed, vector(packetBytes)"
178	7802163 2546 3238 1544462 6.175318574533 800.804998078386 82 40 124 3448 158752
178	17882250 640 1569459 1924362 815.514565319757 1012.824411804326 20 40 40 800 32000
vector 179 FanetGpsr.host[31].wlan[0].mac.queue queueLength:vector ETV
attr interpolationmode sample-hold
attr source "count(packetPushed) - count(packetPopped) - count(packetRemoved) - count(packetDropped)"
attr title "queue length, vector"
179	7804709 4924 3238 1544462 6.175318574533 800.804998078386 164 0 1 82 82
179	17882890 1240 1569459 1924362 815.514565319757 1012.824411804326 40 0 1 20 20
vector 180 FanetGpsr.host[31].wlan[0].mac.queue packetPopped:vector(packetBytes) ETV
attr interpolationmode none
attr title "packet popped, vector(packetBytes)"
180	7809633 2546 3238 1544462 6.175318574533 800.804998078386 82 40 124 3448 158752
180	17884130 640 1569459 1924362 815.514565319757 1012.824411804326 20 40 40 800 32000
vector 181 FanetGpsr.host[31].wlan[0].mac.queue queueingTime:vector ETV
attr interpolationmode none
attr source queueingTime(packetPopped)
attr title "queueing times, vector"
attr unit s
181	7812179 2462 3238 1544462 6.175318574533 800.804998078386 82 0 0 0 0
181	17884770 620 1569459 1924362 815.514565319757 1012.824411804326 20 0 0 0 0
vector 182 FanetGpsr.host[31].wlan[0].mac sentDownPk:vector(packetBytes) ETV
attr interpolationmode none
attr source packetSentToLower
attr title "packets sent to lower layer, vector(packetBytes)"
182	7814641 2546 3238 1544462 6.175318574533 800.804998078386 82 56 140 4760 290080
182	17885390 640 1569459 1924362 815.514565319757 1012.824411804326 20 56 56 1120 62720
vector 183 FanetGpsr.host[18].wlan[0].mac rcvdPkFromLl:vector(packetBytes) ETV
attr interpolationmode none
attr source packetReceivedFromLower
attr title "packets received from lower layer, vector(packetBytes)"
183	7817187 12929 3291 1548509 6.175341422893 803.518616220373 417 56 140 23940 1422960
183	17886030 4445 1551367 1926710 805.082826204465 1014.121222897188 139 56 56 7784 435904
vector 184 FanetGpsr.host[18].wlan[0].mac passedUpPk:vector(packetBytes) ETV
attr interpolationmode none
attr source packetSentToUpper
attr title "packets passed to higher layer, vector(packetBytes)"
184	7830116 12753 3291 1548509 6.175341422893 803.518616220373 411 40 124 16524 671376
184	17890475 4445 1551367 1926710 805.082826204465 1014.121222897188 139 40 40 5560 222400
vector 185 FanetGpsr.host[27].wlan[0].mac rcvdPkFromLl:vector(packetBytes) ETV
attr interpolationmode none
attr source packetReceivedFromLower
attr title "packets received from lower layer, vector(packetBytes)"
185	7842869 15486 3299 1544523 6.175341596632 800.805021387412 498 56 140 28476 1676976
185	17894920 5424 1551359 1924950 805.082825763255 1013.111979451643 170 56 56 9520 533120
vector 186 FanetGpsr.host[27].wlan[0].mac passedUpPk:vector(packetBytes) ETV
attr interpolationmode none
attr source packetSentToUpper
attr title "packets passed to higher layer, vector(packetBytes)"
186	7858355 15307 3299 1544523 6.175341596632 800.805021387412 492 40 124 19764 800976
186	17900344 5424 1551359 1924950 805.082825763255 1013.111979451643 170 40 40 6800 272000
vector 187 FanetGpsr.host[14].wlan[0].mac rcvdPkFromLl:vector(packetBytes) ETV
attr interpolationmode none
attr source packetReceivedFromLower
attr title "packets received from lower layer, vector(packetBytes)"
187	7873662 28067 3307 1548513 6.175341995327 803.518616337304 904 56 152 51908 3088912
187	17905768 7893 1550008 1926868 804.282779632944 1014.140100144997 247 56 56 13832 774592
vector 188 FanetGpsr.host[14].wlan[0].mac passedUpPk:vector(packetBytes) ETV
attr interpolationmode none
attr source packetSentToUpper
attr title "packets passed to higher layer, vector(packetBytes)"
188	7901729 27649 3307 1548513 6.175341995327 803.518616337304 890 40 124 35684 1437776
188	17913661 7893 1550008 1926868 804.282779632944 1014.140100144997 247 40 40 9880 395200
vector 189 FanetGpsr.host[15].wlan[0].mac rcvdPkFromLl:vector(packetBytes) ETV
attr interpolationmode none
attr source packetReceivedFromLower
attr title "packets received from lower layer, vector(packetBytes)"
189	7929378 22260 3311 1544896 6.175342228109 800.974837464226 719 56 152 42052 2607536
189	17921554 5429 1551993 1926864 805.519274823656 1014.140100126677 170 56 56 9520 533120
vector 190 FanetGpsr.host[15].wlan[0].mac passedUpPk:vector(packetBytes) ETV
attr interpolationmode none
attr source packetSentToUpper
attr title "packets passed to higher layer, vector(packetBytes)"
190	7951638 21755 3311 1544896 6.175342228109 800.974837464226 702 40 124 28416 1178304
190	17926983 5429 1551993 1926864 805.519274823656 1014.140100126677 170 40 40 6800 272000
vector 191 FanetGpsr.host[48].wlan[0].mac rcvdPkFromHl:vector(packetBytes) ETV
attr interpolationmode none
attr source packetReceivedFromUpper
attr title "packets received from higher layer, vector(packetBytes)"
191	7973393 2353 3399 1537447 6.248330608942 797.132221846844 76 40 124 3124 135376
191	17932412 702 1551306 1918825 805.082802877298 1009.824927954469 22 40 40 880 35200
vector 192 FanetGpsr.host[48].wlan[0].mac.queue packetPushed:vector(packetBytes) ETV
attr interpolationmode none
attr title "packet pushed, vector(packetBytes)"
192	7975746 2353 3399 1537447 6.248330608942 797.132221846844 76 40 124 3124 135376
192	17933114 702 1551306 1918825 805.082802877298 1009.824927954469 22 40 40 880 35200
vector 193 FanetGpsr.host[48].wlan[0].mac.queue queueLength:vector ETV
attr interpolationmode sample-hold
attr source "count(packetPushed) - count(packetPopped) - count(packetRemoved) - count(packetDropped)"
attr title "queue length, vector"
193	7978099 4552 3399 1537447 6.248330608942 797.132221846844 152 0 1 76 76
193	17933816 1360 1551306 1918825 805.082802877298 1009.824927954469 44 0 1 22 22
vector 194 FanetGpsr.host[48].wlan[0].mac.queue packetPopped:vector(packetBytes) ETV
attr interpolationmode none
attr title "packet popped, vector(packetBytes)"
194	7982651 2353 3399 1537447 6.248330608942 797.132221846844 76 40 124 3124 135376
194	17935176 702 1551306 1918825 805.082802877298 1009.824927954469 22 40 40 880 35200
vector 195 FanetGpsr.host[48].wlan[0].mac.queue queueingTime:vector ETV
attr interpolationmode none
attr source queueingTime(packetPopped)
attr title "queueing times, vector"
attr unit s
195	7985004 2276 3399 1537447 6.248330608942 797.132221846844 76 0 0 0 0
195	17935878 680 1551306 1918825 805.082802877298 1009.824927954469 22 0 0 0 0
vector 196 FanetGpsr.host[48].wlan[0].mac sentDownPk:vector(packetBytes) ETV
attr interpolationmode none
attr source packetSentToLower
attr title "packets sent to lower layer, vector(packetBytes)"
196	7987280 2353 3399 1537447 6.248330608942 797.132221846844 76 56 140 4340 254800
196	17936558 702 1551306 1918825 805.082802877298 1009.824927954469 22 56 56 1232 68992
vector 197 FanetGpsr.host[35].wlan[0].mac rcvdPkFromHl:vector(packetBytes) ETV
attr interpolationmode none
attr source packetReceivedFromUpper
attr title "packets received from higher layer, vector(packetBytes)"
197	7989633 2483 3575 1540718 6.320681096986 798.59388520941 80 40 40 3200 128000
197	17937260 671 1551781 1922484 805.504897197241 1011.57394243637 21 40 40 840 33600
vector 198 FanetGpsr.host[35].wlan[0].mac.queue packetPushed:vector(packetBytes) ETV
attr interpolationmode none
attr title "packet pushed, vector(packetBytes)"
198	7992116 2483 3575 1540718 6.320681096986 798.59388520941 80 40 40 3200 128000
198	17937931 671 1551781 1922484 805.504897197241 1011.57394243637 21 40 40 840 33600
vector 199 FanetGpsr.host[35].wlan[0].mac.queue queueLength:vector ETV
attr interpolationmode sample-hold
attr source "count(packetPushed) - count(packetPopped) - count(packetRemoved) - count(packetDropped)"
attr title "queue length, vector"
199	7994599 4806 3575 1540718 6.320681096986 798.59388520941 160 0 1 80 80
199	17938602 1300 1551781 1922484 805.504897197241 1011.57394243637 42 0 1 21 21
vector 200 FanetGpsr.host[35].wlan[0].mac.queue packetPopped:vector(packetBytes) ETV
attr interpolationmode none
attr title "packet popped, vector(packetBytes)"
200	7999405 2483 3575 1540718 6.320681096986 798.59388520941 80 40 40 3200 128000
200	17939902 671 1551781 1922484 805.504897197241 1011.57394243637 21 40 40 840 33600
vector 201 FanetGpsr.host[35].wlan[0].mac.queue queueingTime:vector ETV
attr interpolationmode none
attr source queueingTime(packetPopped)
attr title "queueing times, vector"
attr unit s
201	8001888 2403 3575 1540718 6.320681096986 798.59388520941 80 0 0 0 0
201	17940573 650 1551781 1922484 805.504897197241 1011.57394243637 21 0 0 0 0
vector 202 FanetGpsr.host[35].wlan[0].mac sentDownPk:vector(packetBytes) ETV
attr interpolationmode none
attr source packetSentToLower
attr title "packets sent to lower layer, vector(packetBytes)"
202	8004291 2483 3575 1540718 6.320681096986 798.59388520941 80 56 56 4480 250880
202	17941223 671 1551781 1922484 805.504897197241 1011.57394243637 21 56 56 1176 65856
vector 203 FanetGpsr.host[38].wlan[0].mac rcvdPkFromLl:vector(packetBytes) ETV
attr interpolationmode none
attr source packetReceivedFromLower
attr title "packets received from lower layer, vector(packetBytes)"
203	8006774 25267 3628 1544362 6.320704198717 800.732876028765 810 56 140 63672 6129312
203	17941894 3136 1550199 1927038 804.405608945868 1014.24953032639 98 56 56 5488 307328
vector 204 FanetGpsr.host[38].wlan[0].mac passedUpPk:vector(packetBytes) ETV
attr interpolationmode none
attr source packetSentToUpper
attr title "packets passed to higher layer, vector(packetBytes)"
204	8032041 18367 3628 1544362 6.320704198717 800.732876028765 592 40 40 23680 947200
204	17945030 3136 1550199 1927038 804.405608945868 1014.24953032639 98 40 40 3920 156800
vector 205 FanetGpsr.host[7].wlan[0].mac rcvdPkFromLl:vector(packetBytes) ETV
attr interpolationmode none
attr source packetReceivedFromLower
attr title "packets received from lower layer, vector(packetBytes)"
205	8050408 20710 3632 1547435 6.320704261861 802.734379512598 667 56 140 41552 2914912
205	17948166 4634 1551842 1924606 805.504920361551 1012.956492783771 145 56 56 8120 454720
vector 206 FanetGpsr.host[7].wlan[0].mac passedUpPk:vector(packetBytes) ETV
attr interpolationmode none
attr source packetSentToUpper
attr title "packets passed to higher layer, vector(packetBytes)"
206	8071118 19112 3632 1547435 6.320704261861 802.734379512598 617 40 40 24680 987200
206	17952800 4634 1551842 1924606 805.504920361551 1012.956492783771 145 40 40 5800 232000
vector 207 FanetGpsr.host[28].wlan[0].mac rcvdPkFromLl:vector(packetBytes) ETV
attr interpolationmode none
attr source packetReceivedFromLower
attr title "packets received from lower layer, vector(packetBytes)"
207	8090230 46154 3636 1547766 6.320704456326 803.03810522138 1479 56 140 128436 13578096
207	17957434 5948 1550036 1927030 804.282779907778 1014.249530001937 186 56 56 10416 583296
vector 208 FanetGpsr.host[28].wlan[0].mac passedUpPk:vector(packetBytes) ETV
attr interpolationmode none
attr source packetSentToUpper
attr title "packets passed to higher layer, vector(packetBytes)"
208	8136384 29004 3636 1547766 6.320704456326 803.03810522138 936 40 40 37440 1497600
208	17963382 5948 1550036 1927030 804.282779907778 1014.249530001937 186 40 40 7440 297600
vector 209 FanetGpsr.host[11].wlan[0].mac rcvdPkFromLl:vector(packetBytes) ETV
attr interpolationmode none
attr source packetReceivedFromLower
attr title "packets received from lower layer, vector(packetBytes)"
209	8165388 28360 3640 1547734 6.320704595676 803.03810498804 910 56 152 56348 3910960
209	17969330 9356 1549566 1927034 803.901464110416 1014.249530270968 292 56 140 20300 1689520
vector 210 FanetGpsr.host[11].wlan[0].mac passedUpPk:vector(packetBytes) ETV
attr interpolationmode none
attr source packetSentToUpper
attr title "packets passed to higher layer, vector(packetBytes)"
210	8193748 26307 3640 1547734 6.320704595676 803.03810498804 846 40 40 33840 1353600
210	17978686 7834 1549566 1927034 803.901464110416 1014.249530270968 245 40 40 9800 392000
vector 211 FanetGpsr.host[42].wlan[0].mac rcvdPkFromLl:vector(packetBytes) ETV
attr interpolationmode none
attr source packetReceivedFromLower
attr title "packets received from lower layer, vector(packetBytes)"
211	8220055 60727 3644 1547718 6.320704712141 803.038104801607 1941 56 152 172392 18573696
211	17986520 9682 1549992 1927046 804.282779358407 1014.249530701567 303 56 56 16968 950208
vector 212 FanetGpsr.host[42].wlan[0].mac passedUpPk:vector(packetBytes) ETV
attr interpolationmode none
attr source packetSentToUpper
attr title "packets passed to higher layer, vector(packetBytes)"
212	8280782 36722 3644 1547718 6.320704712141 803.038104801607 1183 40 40 47320 1892800
212	17996202 9682 1549992 1927046 804.282779358407 1014.249530701567 303 40 40 12120 484800
vector 213 FanetGpsr.host[45].wlan[0].mac rcvdPkFromHl:vector(packetBytes) ETV
attr interpolationmode none
attr source packetReceivedFromUpper
attr title "packets received from higher layer, vector(packetBytes)"
213	8317504 2603 3755 1524865 6.448477625381 790.736639038661 84 40 124 4032 244608
213	18005884 1264 1549182 1910292 803.607052122244 1005.126854735426 39 40 124 2988 296592
vector 214 FanetGpsr.host[45].wlan[0].mac.queue packetPushed:vector(packetBytes) ETV
attr interpolationmode none
attr title "packet pushed, vector(packetBytes)"
214	8320107 2603 3755 1524865 6.448477625381 790.736639038661 84 40 124 4032 244608
214	18007148 1264 1549182 1910292 803.607052122244 1005.126854735426 39 40 124 2988 296592
vector 215 FanetGpsr.host[45].wlan[0].mac.queue queueLength:vector ETV
attr interpolationmode sample-hold
attr source "count(packetPushed) - count(packetPopped) - count(packetRemoved) - count(packetDropped)"
attr title "queue length, vector"
215	8322710 5022 3755 1524865 6.448477625381 790.736639038661 168 0 1 84 84
215	18008412 2416 1549182 1910292 803.607052122244 1005.126854735426 78 0 1 39 39
vector 216 FanetGpsr.host[45].wlan[0].mac.queue packetPopped:vector(packetBytes) ETV
attr interpolationmode none
attr title "packet popped, vector(packetBytes)"
216	8327732 2603 3755 1524865 6.448477625381 790.736639038661 84 40 124 4032 244608
216	18010828 1264 1549182 1910292 803.607052122244 1005.126854735426 39 40 124 2988 296592
vector 217 FanetGpsr.host[45].wlan[0].mac.queue queueingTime:vector ETV
attr interpolationmode none
attr source queueingTime(packetPopped)
attr title "queueing times, vector"
attr unit s
217	8330335 2511 3755 1524865 6.448477625381 790.736639038661 84 0 0 0 0
217	18012092 1208 1549182 1910292 803.607052122244 1005.126854735426 39 0 0 0 0
vector 218 FanetGpsr.host[45].wlan[0].mac sentDownPk:vector(packetBytes) ETV
attr interpolationmode none
attr source packetSentToLower
attr title "packets sent to lower layer, vector(packetBytes)"
218	8332846 2603 3755 1524865 6.448477625381 790.736639038661 84 56 140 5376 395136
218	18013300 1264 1549182 1910292 803.607052122244 1005.126854735426 39 56 140 3612 402192
vector 219 FanetGpsr.host[8].wlan[0].mac rcvdPkFromLl:vector(packetBytes) ETV
attr interpolationmode none
attr source packetReceivedFromLower
attr title "packets received from lower layer, vector(packetBytes)"
219	8335449 118951 3808 1548184 6.448500642534 803.369770870413 3756 56 140 412272 51358272
219	18014564 28444 1548873 1926561 803.548967704856 1014.105659581596 873 56 140 96432 12056352
vector 220 FanetGpsr.host[8].wlan[0].mac passedUpPk:vector(packetBytes) ETV
attr interpolationmode none
attr source packetSentToUpper
attr title "packets passed to higher layer, vector(packetBytes)"
220	8454400 43456 3808 1548184 6.448500642534 803.369770870413 1401 40 124 60156 2916624
220	18043008 11507 1549263 1926561 803.607075588831 1014.105659581596 359 40 124 18728 1290752
vector 221 FanetGpsr.host[13].wlan[0].mac rcvdPkFromLl:vector(packetBytes) ETV
attr interpolationmode none
attr source packetReceivedFromLower
attr title "packets received from lower layer, vector(packetBytes)"
221	8497856 115585 3812 1548192 6.448500645573 803.369770930487 3645 56 140 404628 50730288
221	18054515 26282 1548875 1926581 803.548967935887 1014.105659666135 806 56 140 88480 11023040
vector 222 FanetGpsr.host[13].wlan[0].mac passedUpPk:vector(packetBytes) ETV
attr interpolationmode none
attr source packetSentToUpper
attr title "packets passed to higher layer, vector(packetBytes)"
222	8613441 39043 3812 1548192 6.448500645573 803.369770930487 1259 40 124 50444 2028176
222	18080797 9837 1549259 1926581 803.607075425621 1014.105659666135 307 40 124 13708 725392
vector 223 FanetGpsr.host[21].wlan[0].mac rcvdPkFromLl:vector(packetBytes) ETV
attr interpolationmode none
attr source packetReceivedFromLower
attr title "packets received from lower layer, vector(packetBytes)"
223	8652484 98402 3816 1547451 6.448500734014 802.734379898375 3110 56 140 342160 42680960
223	18090634 11412 1549243 1926160 803.607075263252 1013.54912188727 350 56 140 36064 4324544
vector 224 FanetGpsr.host[21].wlan[0].mac passedUpPk:vector(packetBytes) ETV
attr interpolationmode none
attr source packetSentToUpper
attr title "packets passed to higher layer, vector(packetBytes)"
224	8750886 40871 3816 1547451 6.448500734014 802.734379898375 1313 40 124 69572 4897328
224	18102046 4922 1549243 1921280 803.607075263252 1011.198964830136 154 40 40 6160 246400
vector 225 FanetGpsr.host[17].wlan[0].mac rcvdPkFromLl:vector(packetBytes) ETV
attr interpolationmode none
attr source packetReceivedFromLower
attr title "packets received from lower layer, vector(packetBytes)"
225	8791757 98533 3820 1547228 6.448500755034 802.549070597368 3111 56 140 345072 43243872
225	18106968 26780 1548989 1926172 803.549019483449 1013.549122521503 820 56 140 92120 11626720
vector 226 FanetGpsr.host[17].wlan[0].mac passedUpPk:vector(packetBytes) ETV
attr interpolationmode none
attr source packetSentToUpper
attr title "packets passed to higher layer, vector(packetBytes)"
226	8890290 33611 3820 1545436 6.448500755034 801.548341803368 1084 40 124 43948 1830832
226	18133748 8761 1549255 1925834 803.607075411835 1013.548968143918 274 40 124 11296 493504
vector 227 FanetGpsr.host[22].wlan[0].mac rcvdPkFromLl:vector(packetBytes) ETV
attr interpolationmode none
attr source packetReceivedFromLower
attr title "packets received from lower layer, vector(packetBytes)"
227	8923901 120399 3824 1548196 6.44850076425 803.369770963731 3804 56 140 425544 53583264
227	18142509 27122 1548871 1926565 803.548967700445 1014.105659637431 832 56 140 90356 11186896
vector 228 FanetGpsr.host[22].wlan[0].mac passedUpPk:vector(packetBytes) ETV
attr interpolationmode none
attr source packetSentToUpper
attr title "packets passed to higher layer, vector(packetBytes)"
228	9044300 52352 3824 1548196 6.44850076425 803.369770963731 1669 40 124 99940 8111920
228	18169631 11756 1549267 1926565 803.607075628618 1014.105659637431 366 40 124 19260 1343280
vector 229 FanetGpsr.host[10].wlan[0].mac rcvdPkFromLl:vector(packetBytes) ETV
attr interpolationmode none
attr source packetReceivedFromLower
attr title "packets received from lower layer, vector(packetBytes)"
229	9096652 76824 3828 1547455 6.448500879408 802.734379899823 2419 56 140 259448 31886848
229	18181387 18465 1549235 1926589 803.60707507767 1014.105659950439 568 56 140 59528 7214368
vector 230 FanetGpsr.host[10].wlan[0].mac passedUpPk:vector(packetBytes) ETV
attr interpolationmode none
attr source packetSentToUpper
attr title "packets passed to higher layer, vector(packetBytes)"
230	9173476 29477 3828 1547455 6.448500879408 802.734379899823 949 40 124 38464 1601056
230	18199852 7599 1549235 1926589 803.60707507767 1014.105659950439 238 40 40 9520 380800
vector 231 FanetGpsr.host[3].wlan[0].mac rcvdPkFromLl:vector(packetBytes) ETV
attr interpolationmode none
attr source packetReceivedFromLower
attr title "packets received from lower layer, vector(packetBytes)"
231	9202953 86170 3832 1547234 6.448500910084 802.549070883538 2715 56 140 295932 36717072
231	18207451 26442 1549002 1926168 803.549019679911 1013.549122311204 810 56 140 89964 11282544
vector 232 FanetGpsr.host[3].wlan[0].mac passedUpPk:vector(packetBytes) ETV
attr interpolationmode none
attr source packetSentToUpper
attr title "packets passed to higher layer, vector(packetBytes)"
232	9289123 31242 3832 1544680 6.448500910084 800.851919959296 1007 40 124 40700 1680080
232	18233893 9669 1549239 1922778 803.607075099584 1011.741997367204 302 40 124 14012 800048
vector 233 FanetGpsr.host[23].wlan[0].mac rcvdPkFromLl:vector(packetBytes) ETV
attr interpolationmode none
attr source packetReceivedFromLower
attr title "packets received from lower layer, vector(packetBytes)"
233	9320365 104921 3836 1548347 6.448500912744 803.421295355932 3306 56 140 382452 49041552
233	18243562 20299 1548773 1926569 803.548916635398 1014.105659650816 622 56 140 71456 9128896
vector 234 FanetGpsr.host[23].wlan[0].mac passedUpPk:vector(packetBytes) ETV
attr interpolationmode none
attr source packetSentToUpper
attr title "packets passed to higher layer, vector(packetBytes)"
234	9425286 49066 3836 1548347 6.448500912744 803.421295355932 1568 40 124 114044 10925936
234	18263861 8653 1548773 1926569 803.548916635398 1014.105659650816 268 40 124 17608 1558432
vector 235 FanetGpsr.host[16].wlan[0].mac rcvdPkFromLl:vector(packetBytes) ETV
attr interpolationmode none
attr source packetReceivedFromLower
attr title "packets received from lower layer, vector(packetBytes)"
235	9474352 87051 3840 1547230 6.448500979753 802.549070713641 2749 56 140 303464 37926784
235	18272514 18628 1548981 1926057 803.549019159818 1013.549070713004 570 56 140 66444 8554224
vector 236 FanetGpsr.host[16].wlan[0].mac passedUpPk:vector(packetBytes) ETV
attr interpolationmode none
attr source packetSentToUpper
attr title "packets passed to higher layer, vector(packetBytes)"
236	9561403 40272 3840 1545472 6.448500979753 801.548342222625 1291 40 124 78688 6501472
236	18291142 5075 1549759 1922770 804.06664674333 1011.741997218679 159 40 40 6360 254400
vector 237 FanetGpsr.host[44].wlan[0].mac rcvdPkFromLl:vector(packetBytes) ETV
attr interpolationmode none
attr source packetReceivedFromLower
attr title "packets received from lower layer, vector(packetBytes)"
[...]
attr interpolationmode none
attr title "packet pushed, vector(packetBytes)"
555	15919546 2367 26268 1547657 12.470794708934 803.038081645496 76 40 40 3040 121600
555	19665778 641 1565540 1918662 813.258564118292 1009.813019058196 20 40 40 800 32000
vector 556 FanetGpsr.host[30].wlan[0].mac.queue queueLength:vector ETV
attr interpolationmode sample-hold
attr source "count(packetPushed) - count(packetPopped) - count(packetRemoved) - count(packetDropped)"
attr title "queue length, vector"
556	15921913 4582 26268 1547657 12.470794708934 803.038081645496 152 0 1 76 76
556	19666419 1242 1565540 1918662 813.258564118292 1009.813019058196 40 0 1 20 20
vector 557 FanetGpsr.host[30].wlan[0].mac.queue packetPopped:vector(packetBytes) ETV
attr interpolationmode none
attr title "packet popped, vector(packetBytes)"
557	15926495 2367 26268 1547657 12.470794708934 803.038081645496 76 40 40 3040 121600
557	19667661 641 1565540 1918662 813.258564118292 1009.813019058196 20 40 40 800 32000
vector 558 FanetGpsr.host[30].wlan[0].mac.queue queueingTime:vector ETV
attr interpolationmode none
attr source queueingTime(packetPopped)
attr title "queueing times, vector"
attr unit s
558	15928862 2291 26268 1547657 12.470794708934 803.038081645496 76 0 0 0 0
558	19668302 621 1565540 1918662 813.258564118292 1009.813019058196 20 0 0 0 0
vector 559 FanetGpsr.host[30].wlan[0].mac sentDownPk:vector(packetBytes) ETV
attr interpolationmode none
attr source packetSentToLower
attr title "packets sent to lower layer, vector(packetBytes)"
559	15931153 2367 26268 1547657 12.470794708934 803.038081645496 76 56 56 4256 238336
559	19668923 641 1565540 1918662 813.258564118292 1009.813019058196 20 56 56 1120 62720
vector 560 FanetGpsr.host[0].app[0] pingRxSeq:vector ETV
attr interpolationmode none
attr title "ping rx seq, vector"
560	15933520 16933 27328 1533462 12.549225385074 794.549225135503 527 12 794 241528 135302834
560	19669564 2108 1610900 1858840 838.549276444527 977.549225590291 64 838 977 59220 54951680
vector 561 FanetGpsr.host[0].app[0] rtt:vector ETV
attr interpolationmode none
attr title "ping round-trip time, vector"
attr unit s
561	15950453 22711 27328 1533462 12.549225385074 794.549225135503 527 0.000411356864 0.00041201652 0.216983414469 8.9339295310115e-005
561	19671672 2795 1610900 1858840 838.549276444527 977.549225590291 64 0.000411774916 0.000462942223 0.027230801032 1.1618681854971e-005
vector 562 FanetGpsr.host[0].app[0] numLost:vector ETV
attr interpolationmode none
attr title "pings lost, vector"
562	15973164 351 27328 1435541 12.549225385074 748.549225287042 11 12 268 1977 424553
562	19674467 66 1610900 1761252 838.549276444527 931.549225278359 2 311 387 698 246490
vector 563 FanetGpsr.host[4].wlan[0].mac rcvdPkFromHl:vector(packetBytes) ETV
attr interpolationmode none
attr source packetReceivedFromUpper
attr title "packets received from higher layer, vector(packetBytes)"
563	15973515 7502 27989 1547014 12.887394214049 802.548968109772 235 40 124 22420 2511280
563	19674533 3375 1548885 1916835 803.548968109772 1008.801234727721 103 40 124 11008 1294432
vector 564 FanetGpsr.host[4].wlan[0].mac.queue packetPushed:vector(packetBytes) ETV
attr interpolationmode none
attr title "packet pushed, vector(packetBytes)"
564	15981017 7502 27989 1547014 12.887394214049 802.548968109772 235 40 124 22420 2511280
564	19677908 3375 1548885 1916835 803.548968109772 1008.801234727721 103 40 124 11008 1294432
vector 565 FanetGpsr.host[4].wlan[0].mac.queue queueLength:vector ETV
attr interpolationmode sample-hold
attr source "count(packetPushed) - count(packetPopped) - count(packetRemoved) - count(packetDropped)"
attr title "queue length, vector"
565	15988519 14224 27989 1547014 12.887394214049 802.548968109772 470 0 1 235 235
565	19681283 6380 1548885 1916835 803.548968109772 1008.801234727721 206 0 1 103 103
vector 566 FanetGpsr.host[4].wlan[0].mac.queue packetPopped:vector(packetBytes) ETV
attr interpolationmode none
attr title "packet popped, vector(packetBytes)"
566	16002743 7502 27989 1547014 12.887394214049 802.548968109772 235 40 124 22420 2511280
566	19687663 3375 1548885 1916835 803.548968109772 1008.801234727721 103 40 124 11008 1294432
vector 567 FanetGpsr.host[4].wlan[0].mac.queue queueingTime:vector ETV
attr interpolationmode none
attr source queueingTime(packetPopped)
attr title "queueing times, vector"
attr unit s
567	16010245 7112 27989 1547014 12.887394214049 802.548968109772 235 0 0 0 0
567	19691038 3190 1548885 1916835 803.548968109772 1008.801234727721 103 0 0 0 0
vector 568 FanetGpsr.host[4].wlan[0].mac sentDownPk:vector(packetBytes) ETV
attr interpolationmode none
attr source packetSentToLower
attr title "packets sent to lower layer, vector(packetBytes)"
568	16017357 7502 27989 1547014 12.887394214049 802.548968109772 235 56 140 26180 3288880
568	19694228 3375 1548885 1916835 803.548968109772 1008.801234727721 103 56 140 12656 1673056
vector 569 FanetGpsr.host[28].wlan[0].mac rcvdPkFromHl:vector(packetBytes) ETV
attr interpolationmode none
attr source packetReceivedFromUpper
attr title "packets received from higher layer, vector(packetBytes)"
569	16024859 2337 28226 1529730 13.075802649837 793.139635883275 75 40 40 3000 120000
569	19697603 638 1553293 1904842 806.031478114895 1002.160613220188 20 40 40 800 32000
vector 570 FanetGpsr.host[28].wlan[0].mac.queue packetPushed:vector(packetBytes) ETV
attr interpolationmode none
attr title "packet pushed, vector(packetBytes)"
570	16027196 2337 28226 1529730 13.075802649837 793.139635883275 75 40 40 3000 120000
570	19698241 638 1553293 1904842 806.031478114895 1002.160613220188 20 40 40 800 32000
vector 571 FanetGpsr.host[28].wlan[0].mac.queue queueLength:vector ETV
attr interpolationmode sample-hold
attr source "count(packetPushed) - count(packetPopped) - count(packetRemoved) - count(packetDropped)"
attr title "queue length, vector"
571	16029533 4524 28226 1529730 13.075802649837 793.139635883275 150 0 1 75 75
571	19698879 1236 1553293 1904842 806.031478114895 1002.160613220188 40 0 1 20 20
vector 572 FanetGpsr.host[28].wlan[0].mac.queue packetPopped:vector(packetBytes) ETV
attr interpolationmode none
attr title "packet popped, vector(packetBytes)"
572	16034057 2337 28226 1529730 13.075802649837 793.139635883275 75 40 40 3000 120000
572	19700115 638 1553293 1904842 806.031478114895 1002.160613220188 20 40 40 800 32000
vector 573 FanetGpsr.host[28].wlan[0].mac.queue queueingTime:vector ETV
attr interpolationmode none
attr source queueingTime(packetPopped)
attr title "queueing times, vector"
attr unit s
573	16036394 2262 28226 1529730 13.075802649837 793.139635883275 75 0 0 0 0
573	19700753 618 1553293 1904842 806.031478114895 1002.160613220188 20 0 0 0 0
vector 574 FanetGpsr.host[28].wlan[0].mac sentDownPk:vector(packetBytes) ETV
attr interpolationmode none
attr source packetSentToLower
attr title "packets sent to lower layer, vector(packetBytes)"
574	16038656 2337 28226 1529730 13.075802649837 793.139635883275 75 56 56 4200 235200
574	19701371 638 1553293 1904842 806.031478114895 1002.160613220188 20 56 56 1120 62720
vector 575 FanetGpsr.host[42].wlan[0].mac rcvdPkFromHl:vector(packetBytes) ETV
attr interpolationmode none
attr source packetReceivedFromUpper
attr title "packets received from higher layer, vector(packetBytes)"
575	16040993 2545 28536 1539050 13.404285353608 797.795760692102 82 40 40 3280 131200
575	19702009 703 1563210 1909027 812.212851454974 1004.541280854033 22 40 40 880 35200
vector 576 FanetGpsr.host[42].wlan[0].mac.queue packetPushed:vector(packetBytes) ETV
attr interpolationmode none
attr title "packet pushed, vector(packetBytes)"
576	16043538 2545 28536 1539050 13.404285353608 797.795760692102 82 40 40 3280 131200
576	19702712 703 1563210 1909027 812.212851454974 1004.541280854033 22 40 40 880 35200
vector 577 FanetGpsr.host[42].wlan[0].mac.queue queueLength:vector ETV
attr interpolationmode sample-hold
attr source "count(packetPushed) - count(packetPopped) - count(packetRemoved) - count(packetDropped)"
attr title "queue length, vector"
577	16046083 4926 28536 1539050 13.404285353608 797.795760692102 164 0 1 82 82
577	19703415 1362 1563210 1909027 812.212851454974 1004.541280854033 44 0 1 22 22
vector 578 FanetGpsr.host[42].wlan[0].mac.queue packetPopped:vector(packetBytes) ETV
attr interpolationmode none
attr title "packet popped, vector(packetBytes)"
578	16051009 2545 28536 1539050 13.404285353608 797.795760692102 82 40 40 3280 131200
578	19704777 703 1563210 1909027 812.212851454974 1004.541280854033 22 40 40 880 35200
vector 579 FanetGpsr.host[42].wlan[0].mac.queue queueingTime:vector ETV
attr interpolationmode none
attr source queueingTime(packetPopped)
attr title "queueing times, vector"
attr unit s
579	16053554 2463 28536 1539050 13.404285353608 797.795760692102 82 0 0 0 0
579	19705480 681 1563210 1909027 812.212851454974 1004.541280854033 22 0 0 0 0
vector 580 FanetGpsr.host[42].wlan[0].mac sentDownPk:vector(packetBytes) ETV
attr interpolationmode none
attr source packetSentToLower
attr title "packets sent to lower layer, vector(packetBytes)"
580	16056017 2545 28536 1539050 13.404285353608 797.795760692102 82 56 56 4592 257152
580	19706161 703 1563210 1909027 812.212851454974 1004.541280854033 22 56 56 1232 68992
vector 581 FanetGpsr.host[29].wlan[0].mac rcvdPkFromHl:vector(packetBytes) ETV
attr interpolationmode none
attr source packetReceivedFromUpper
attr title "packets received from higher layer, vector(packetBytes)"
581	16058562 5782 29736 1546253 13.638556012884 801.88065484399 188 40 124 16592 1788608
581	19706864 1524 1557046 1915668 808.444822405 1008.37726758793 47 40 124 3896 405824
vector 582 FanetGpsr.host[29].wlan[0].mac.queue packetPushed:vector(packetBytes) ETV
attr interpolationmode none
attr title "packet pushed, vector(packetBytes)"
582	16064344 5782 29736 1546253 13.638556012884 801.88065484399 188 40 124 16592 1788608
582	19708388 1524 1557046 1915668 808.444822405 1008.37726758793 47 40 124 3896 405824
vector 583 FanetGpsr.host[29].wlan[0].mac.queue queueLength:vector ETV
attr interpolationmode sample-hold
attr source "count(packetPushed) - count(packetPopped) - count(packetRemoved) - count(packetDropped)"
attr title "queue length, vector"
583	16070126 10972 29736 1546253 13.638556012884 801.88065484399 376 0 1 188 188
583	19709912 2906 1557046 1915668 808.444822405 1008.37726758793 94 0 1 47 47
vector 584 FanetGpsr.host[29].wlan[0].mac.queue packetPopped:vector(packetBytes) ETV
attr interpolationmode none
attr title "packet popped, vector(packetBytes)"
584	16081098 5782 29736 1546253 13.638556012884 801.88065484399 188 40 124 16592 1788608
584	19712818 1524 1557046 1915668 808.444822405 1008.37726758793 47 40 124 3896 405824
vector 585 FanetGpsr.host[29].wlan[0].mac.queue queueingTime:vector ETV
attr interpolationmode none
attr source queueingTime(packetPopped)
attr title "queueing times, vector"
attr unit s
585	16086880 5486 29736 1546253 13.638556012884 801.88065484399 188 0 0 0 0
585	19714342 1453 1557046 1915668 808.444822405 1008.37726758793 47 0 0 0 0
vector 586 FanetGpsr.host[29].wlan[0].mac sentDownPk:vector(packetBytes) ETV
attr interpolationmode none
attr source packetSentToLower
attr title "packets sent to lower layer, vector(packetBytes)"
586	16092366 5782 29736 1546253 13.638556012884 801.88065484399 188 56 140 19600 2367680
586	19715795 1524 1557046 1915668 808.444822405 1008.37726758793 47 56 140 4648 542528
vector 587 FanetGpsr.host[8].wlan[0].mac rcvdPkFromHl:vector(packetBytes) ETV
attr interpolationmode none
attr source packetReceivedFromUpper
attr title "packets received from higher layer, vector(packetBytes)"
587	16098148 4097 29961 1540888 13.802976044826 798.673686077819 131 40 124 9356 884624
587	19717319 2370 1565721 1911730 813.320085490123 1006.070488409607 73 40 124 7288 833152
vector 588 FanetGpsr.host[8].wlan[0].mac.queue packetPushed:vector(packetBytes) ETV
attr interpolationmode none
attr title "packet pushed, vector(packetBytes)"
588	16102245 4097 29961 1540888 13.802976044826 798.673686077819 131 40 124 9356 884624
588	19719689 2370 1565721 1911730 813.320085490123 1006.070488409607 73 40 124 7288 833152
vector 589 FanetGpsr.host[8].wlan[0].mac.queue queueLength:vector ETV
attr interpolationmode sample-hold
attr source "count(packetPushed) - count(packetPopped) - count(packetRemoved) - count(packetDropped)"
attr title "queue length, vector"
589	16106342 7834 29961 1540888 13.802976044826 798.673686077819 262 0 1 131 131
589	19722059 4490 1565721 1911730 813.320085490123 1006.070488409607 146 0 1 73 73
vector 590 FanetGpsr.host[8].wlan[0].mac.queue packetPopped:vector(packetBytes) ETV
attr interpolationmode none
attr title "packet popped, vector(packetBytes)"
590	16114176 4097 29961 1540888 13.802976044826 798.673686077819 131 40 124 9356 884624
590	19726549 2370 1565721 1911730 813.320085490123 1006.070488409607 73 40 124 7288 833152
vector 591 FanetGpsr.host[8].wlan[0].mac.queue queueingTime:vector ETV
attr interpolationmode none
attr source queueingTime(packetPopped)
attr title "queueing times, vector"
attr unit s
591	16118273 3917 29961 1540888 13.802976044826 798.673686077819 131 0 0 0 0
591	19728919 2245 1565721 1911730 813.320085490123 1006.070488409607 73 0 0 0 0
vector 592 FanetGpsr.host[8].wlan[0].mac sentDownPk:vector(packetBytes) ETV
attr interpolationmode none
attr source packetSentToLower
attr title "packets sent to lower layer, vector(packetBytes)"
592	16122190 4097 29961 1540888 13.802976044826 798.673686077819 131 56 140 11452 1217552
592	19731164 2370 1565721 1911730 813.320085490123 1006.070488409607 73 56 140 8456 1085056
vector 593 FanetGpsr.host[5].wlan[0].mac rcvdPkFromHl:vector(packetBytes) ETV
attr interpolationmode none
attr source packetReceivedFromUpper
attr title "packets received from higher layer, vector(packetBytes)"
593	16126287 2459 30736 1544135 14.473705946002 800.724783244075 79 40 40 3160 126400
593	19733534 671 1561265 1926783 811.0646618437 1014.140076688488 21 40 40 840 33600
vector 594 FanetGpsr.host[5].wlan[0].mac.queue packetPushed:vector(packetBytes) ETV
attr interpolationmode none
attr title "packet pushed, vector(packetBytes)"
594	16128746 2459 30736 1544135 14.473705946002 800.724783244075 79 40 40 3160 126400
594	19734205 671 1561265 1926783 811.0646618437 1014.140076688488 21 40 40 840 33600
vector 595 FanetGpsr.host[5].wlan[0].mac.queue queueLength:vector ETV
attr interpolationmode sample-hold
attr source "count(packetPushed) - count(packetPopped) - count(packetRemoved) - count(packetDropped)"
attr title "queue length, vector"
595	16131205 4760 30736 1544135 14.473705946002 800.724783244075 158 0 1 79 79
595	19734876 1300 1561265 1926783 811.0646618437 1014.140076688488 42 0 1 21 21
vector 596 FanetGpsr.host[5].wlan[0].mac.queue packetPopped:vector(packetBytes) ETV
attr interpolationmode none
attr title "packet popped, vector(packetBytes)"
596	16135965 2459 30736 1544135 14.473705946002 800.724783244075 79 40 40 3160 126400
596	19736176 671 1561265 1926783 811.0646618437 1014.140076688488 21 40 40 840 33600
vector 597 FanetGpsr.host[5].wlan[0].mac.queue queueingTime:vector ETV
attr interpolationmode none
attr source queueingTime(packetPopped)
attr title "queueing times, vector"
attr unit s
597	16138424 2380 30736 1544135 14.473705946002 800.724783244075 79 0 0 0 0
597	19736847 650 1561265 1926783 811.0646618437 1014.140076688488 21 0 0 0 0
vector 598 FanetGpsr.host[5].wlan[0].mac sentDownPk:vector(packetBytes) ETV
attr interpolationmode none
attr source packetSentToLower
attr title "packets sent to lower layer, vector(packetBytes)"
598	16140804 2459 30736 1544135 14.473705946002 800.724783244075 79 56 56 4424 247744
598	19737497 671 1561265 1926783 811.0646618437 1014.140076688488 21 56 56 1176 65856
vector 599 FanetGpsr.host[12].wlan[0].mac rcvdPkFromHl:vector(packetBytes) ETV
attr interpolationmode none
attr source packetReceivedFromUpper
attr title "packets received from higher layer, vector(packetBytes)"
599	16143263 2577 31861 1533815 14.57450855989 794.842706599741 83 40 40 3320 132800
599	19738168 702 1556745 1906831 808.400059188719 1003.455017260279 22 40 40 880 35200
vector 600 FanetGpsr.host[12].wlan[0].mac.queue packetPushed:vector(packetBytes) ETV
attr interpolationmode none
attr title "packet pushed, vector(packetBytes)"
600	16145840 2577 31861 1533815 14.57450855989 794.842706599741 83 40 40 3320 132800
600	19738870 702 1556745 1906831 808.400059188719 1003.455017260279 22 40 40 880 35200
vector 601 FanetGpsr.host[12].wlan[0].mac.queue queueLength:vector ETV
attr interpolationmode sample-hold
attr source "count(packetPushed) - count(packetPopped) - count(packetRemoved) - count(packetDropped)"
attr title "queue length, vector"
601	16148417 4988 31861 1533815 14.57450855989 794.842706599741 166 0 1 83 83
601	19739572 1360 1556745 1906831 808.400059188719 1003.455017260279 44 0 1 22 22
vector 602 FanetGpsr.host[12].wlan[0].mac.queue packetPopped:vector(packetBytes) ETV
attr interpolationmode none
attr title "packet popped, vector(packetBytes)"
602	16153405 2577 31861 1533815 14.57450855989 794.842706599741 83 40 40 3320 132800
602	19740932 702 1556745 1906831 808.400059188719 1003.455017260279 22 40 40 880 35200
vector 603 FanetGpsr.host[12].wlan[0].mac.queue queueingTime:vector ETV
attr interpolationmode none
attr source queueingTime(packetPopped)
attr title "queueing times, vector"
attr unit s
603	16155982 2494 31861 1533815 14.57450855989 794.842706599741 83 0 0 0 0
603	19741634 680 1556745 1906831 808.400059188719 1003.455017260279 22 0 0 0 0
vector 604 FanetGpsr.host[12].wlan[0].mac sentDownPk:vector(packetBytes) ETV
attr interpolationmode none
attr source packetSentToLower
attr title "packets sent to lower layer, vector(packetBytes)"
604	16158476 2577 31861 1533815 14.57450855989 794.842706599741 83 56 56 4648 260288
604	19742314 703 1556745 1906831 808.400059188719 1003.455017260279 22 56 56 1232 68992
vector 605 FanetGpsr.host[0].wlan[0].mac packetDropIncorrectlyReceived:vector(packetBytes) ETV
attr interpolationmode none
attr source packetDropReasonIsIncorrectlyReceived(packetDropped)
attr title "packet drop: incorrectly received, vector(packetBytes)"
605	16161053 33 1433991 1433991 747.549225287042 747.549225287042 1 140 140 140 19600
vector 606 FanetGpsr.host[19].wlan[0].mac packetDropIncorrectlyReceived:vector(packetBytes) ETV
attr interpolationmode none
attr source packetDropReasonIsIncorrectlyReceived(packetDropped)
attr title "packet drop: incorrectly received, vector(packetBytes)"
606	16161086 33 1433993 1433993 747.549225365006 747.549225365006 1 140 140 140 19600
vector 607 FanetGpsr.host[32].wlan[0].mac packetDropIncorrectlyReceived:vector(packetBytes) ETV
attr interpolationmode none
attr source packetDropReasonIsIncorrectlyReceived(packetDropped)
attr title "packet drop: incorrectly received, vector(packetBytes)"
607	16161119 33 1433996 1433996 747.549225405576 747.549225405576 1 140 140 140 19600
vector 608 FanetGpsr.host[41].wlan[0].mac packetDropIncorrectlyReceived:vector(packetBytes) ETV
attr interpolationmode none
attr source packetDropReasonIsIncorrectlyReceived(packetDropped)
attr title "packet drop: incorrectly received, vector(packetBytes)"
608	16161152 31 1434000 1434000 747.5492254902 747.5492254902 1 140 140 140 19600
vector 609 FanetGpsr.host[30].wlan[0].mac packetDropIncorrectlyReceived:vector(packetBytes) ETV
attr interpolationmode none
attr source packetDropReasonIsIncorrectlyReceived(packetDropped)
attr title "packet drop: incorrectly received, vector(packetBytes)"
609	16161183 33 1434004 1434004 747.549225593395 747.549225593395 1 140 140 140 19600
